MODEL 1
REMARK VINA RESULT:     0.000      0.000      0.000
REMARK INTER + INTRA:          -0.304
REMARK INTER:                   0.000
REMARK INTRA:                  -0.304
REMARK UNBOUND:                -0.304
REMARK  Name = 50986454
REMARK  5 active torsions:
REMARK  status: ('A' for Active; 'I' for Inactive)
REMARK    1  A    between atoms: O_2  and  C_7
REMARK    2  A    between atoms: O_2  and  C_12
REMARK    3  A    between atoms: C_7  and  C_8
REMARK    4  A    between atoms: C_7  and  C_9
REMARK    5  A    between atoms: C_7  and  C_10
REMARK                            x       y       z     vdW  Elec       q    Type
REMARK                         _______ _______ _______ _____ _____    ______ ____
ROOT
ATOM      1 BR   UNL     1      -4.957  -0.800   2.325  0.00  0.00    +0.000 Br
ATOM      2  O   UNL     1       2.990  -0.675   0.168  0.00  0.00    +0.000 OA
ATOM      3  N   UNL     1       0.900  -0.597   1.135  0.00  0.00    +0.000 N 
ATOM      4  N   UNL     1       1.440  -0.350   2.387  0.00  0.00    +0.000 NA
ATOM      5  N   UNL     1      -1.371  -0.908   0.213  0.00  0.00    +0.000 NA
ATOM      6  C   UNL     1      -0.496  -0.674   1.213  0.00  0.00    +0.000 A 
ATOM      7  C   UNL     1       1.778  -0.727   0.026  0.00  0.00    +0.000 C 
ATOM      8  C   UNL     1      -0.829  -0.468   2.552  0.00  0.00    +0.000 A 
ATOM      9  C   UNL     1       0.391  -0.276   3.207  0.00  0.00    +0.000 A 
ATOM     10  C   UNL     1      -2.187  -0.498   2.927  0.00  0.00    +0.000 A 
ATOM     11  C   UNL     1      -3.115  -0.737   1.918  0.00  0.00    +0.000 A 
ATOM     12  C   UNL     1      -2.664  -0.929   0.622  0.00  0.00    +0.000 A 
ENDROOT
BRANCH   7  13
ATOM     13  O   UNL     1       1.108  -0.900  -1.148  0.00  0.00    +0.000 OA
BRANCH  13  14
ATOM     14  C   UNL     1       1.149   0.116  -2.199  0.00  0.00    +0.000 C 
ATOM     15  C   UNL     1       2.427   0.009  -3.049  0.00  0.00    +0.000 C 
ATOM     16  C   UNL     1      -0.109  -0.131  -3.055  0.00  0.00    +0.000 C 
ATOM     17  C   UNL     1       1.038   1.546  -1.653  0.00  0.00    +0.000 C 
ENDBRANCH  13  14
ENDBRANCH   7  13
TORSDOF 2
ENDMDL
MODEL 2
REMARK VINA RESULT:     0.000      4.773      6.629
REMARK INTER + INTRA:          -0.304
REMARK INTER:                   0.000
REMARK INTRA:                  -0.304
REMARK UNBOUND:                -0.304
REMARK  Name = 50986454
REMARK  5 active torsions:
REMARK  status: ('A' for Active; 'I' for Inactive)
REMARK    1  A    between atoms: O_2  and  C_7
REMARK    2  A    between atoms: O_2  and  C_12
REMARK    3  A    between atoms: C_7  and  C_8
REMARK    4  A    between atoms: C_7  and  C_9
REMARK    5  A    between atoms: C_7  and  C_10
REMARK                            x       y       z     vdW  Elec       q    Type
REMARK                         _______ _______ _______ _____ _____    ______ ____
ROOT
ATOM      1 BR   UNL     1       1.250  -0.540  -0.533  0.00  0.00    +0.000 Br
ATOM      2  O   UNL     1      -5.080   4.517  -2.006  0.00  0.00    +0.000 OA
ATOM      3  N   UNL     1      -3.095   3.441  -1.543  0.00  0.00    +0.000 N 
ATOM      4  N   UNL     1      -2.399   4.639  -1.525  0.00  0.00    +0.000 NA
ATOM      5  N   UNL     1      -2.525   1.053  -1.265  0.00  0.00    +0.000 NA
ATOM      6  C   UNL     1      -2.226   2.368  -1.314  0.00  0.00    +0.000 A 
ATOM      7  C   UNL     1      -4.497   3.469  -1.775  0.00  0.00    +0.000 C 
ATOM      8  C   UNL     1      -0.955   2.918  -1.148  0.00  0.00    +0.000 A 
ATOM      9  C   UNL     1      -1.132   4.298  -1.287  0.00  0.00    +0.000 A 
ATOM     10  C   UNL     1       0.133   2.056  -0.906  0.00  0.00    +0.000 A 
ATOM     11  C   UNL     1      -0.143   0.693  -0.849  0.00  0.00    +0.000 A 
ATOM     12  C   UNL     1      -1.447   0.264  -1.031  0.00  0.00    +0.000 A 
ENDROOT
BRANCH   7  13
ATOM     13  O   UNL     1      -5.060   2.230  -1.698  0.00  0.00    +0.000 OA
BRANCH  13  14
ATOM     14  C   UNL     1      -6.006   1.894  -0.635  0.00  0.00    +0.000 C 
ATOM     15  C   UNL     1      -7.427   2.390  -0.955  0.00  0.00    +0.000 C 
ATOM     16  C   UNL     1      -5.967   0.356  -0.525  0.00  0.00    +0.000 C 
ATOM     17  C   UNL     1      -5.586   2.445   0.734  0.00  0.00    +0.000 C 
ENDBRANCH  13  14
ENDBRANCH   7  13
TORSDOF 2
ENDMDL
MODEL 3
REMARK VINA RESULT:     0.000      3.759      4.381
REMARK INTER + INTRA:          -0.304
REMARK INTER:                   0.000
REMARK INTRA:                  -0.304
REMARK UNBOUND:                -0.304
REMARK  Name = 50986454
REMARK  5 active torsions:
REMARK  status: ('A' for Active; 'I' for Inactive)
REMARK    1  A    between atoms: O_2  and  C_7
REMARK    2  A    between atoms: O_2  and  C_12
REMARK    3  A    between atoms: C_7  and  C_8
REMARK    4  A    between atoms: C_7  and  C_9
REMARK    5  A    between atoms: C_7  and  C_10
REMARK                            x       y       z     vdW  Elec       q    Type
REMARK                         _______ _______ _______ _____ _____    ______ ____
ROOT
ATOM      1 BR   UNL     1      -2.451  -0.559   2.753  0.00  0.00    +0.000 Br
ATOM      2  O   UNL     1       2.533   5.512   0.276  0.00  0.00    +0.000 OA
ATOM      3  N   UNL     1       0.839   4.068   0.875  0.00  0.00    +0.000 N 
ATOM      4  N   UNL     1      -0.124   5.041   0.666  0.00  0.00    +0.000 NA
ATOM      5  N   UNL     1       0.851   1.718   1.639  0.00  0.00    +0.000 NA
ATOM      6  C   UNL     1       0.246   2.882   1.322  0.00  0.00    +0.000 A 
ATOM      7  C   UNL     1       2.200   4.388   0.621  0.00  0.00    +0.000 C 
ATOM      8  C   UNL     1      -1.125   3.128   1.392  0.00  0.00    +0.000 A 
ATOM      9  C   UNL     1      -1.280   4.455   0.980  0.00  0.00    +0.000 A 
ATOM     10  C   UNL     1      -1.981   2.096   1.825  0.00  0.00    +0.000 A 
ATOM     11  C   UNL     1      -1.387   0.883   2.158  0.00  0.00    +0.000 A 
ATOM     12  C   UNL     1      -0.011   0.756   2.051  0.00  0.00    +0.000 A 
ENDROOT
BRANCH   7  13
ATOM     13  O   UNL     1       3.027   3.320   0.803  0.00  0.00    +0.000 OA
BRANCH  13  14
ATOM     14  C   UNL     1       3.745   2.720  -0.321  0.00  0.00    +0.000 C 
ATOM     15  C   UNL     1       5.025   3.502  -0.665  0.00  0.00    +0.000 C 
ATOM     16  C   UNL     1       4.077   1.282   0.128  0.00  0.00    +0.000 C 
ATOM     17  C   UNL     1       2.884   2.600  -1.585  0.00  0.00    +0.000 C 
ENDBRANCH  13  14
ENDBRANCH   7  13
TORSDOF 2
ENDMDL
MODEL 4
REMARK VINA RESULT:     0.000      3.845      4.667
REMARK INTER + INTRA:          -0.304
REMARK INTER:                   0.000
REMARK INTRA:                  -0.304
REMARK UNBOUND:                -0.304
REMARK  Name = 50986454
REMARK  5 active torsions:
REMARK  status: ('A' for Active; 'I' for Inactive)
REMARK    1  A    between atoms: O_2  and  C_7
REMARK    2  A    between atoms: O_2  and  C_12
REMARK    3  A    between atoms: C_7  and  C_8
REMARK    4  A    between atoms: C_7  and  C_9
REMARK    5  A    between atoms: C_7  and  C_10
REMARK                            x       y       z     vdW  Elec       q    Type
REMARK                         _______ _______ _______ _____ _____    ______ ____
ROOT
ATOM      1 BR   UNL     1      -0.573  -2.009   2.464  0.00  0.00    +0.000 Br
ATOM      2  O   UNL     1      -3.067   5.065  -0.937  0.00  0.00    +0.000 OA
ATOM      3  N   UNL     1      -2.680   3.138   0.267  0.00  0.00    +0.000 N 
ATOM      4  N   UNL     1      -3.671   3.457   1.181  0.00  0.00    +0.000 NA
ATOM      5  N   UNL     1      -1.052   1.300  -0.016  0.00  0.00    +0.000 NA
ATOM      6  C   UNL     1      -2.061   1.933   0.619  0.00  0.00    +0.000 A 
ATOM      7  C   UNL     1      -2.447   4.018  -0.824  0.00  0.00    +0.000 C 
ATOM      8  C   UNL     1      -2.689   1.493   1.785  0.00  0.00    +0.000 A 
ATOM      9  C   UNL     1      -3.655   2.462   2.069  0.00  0.00    +0.000 A 
ATOM     10  C   UNL     1      -2.259   0.288   2.376  0.00  0.00    +0.000 A 
ATOM     11  C   UNL     1      -1.220  -0.388   1.744  0.00  0.00    +0.000 A 
ATOM     12  C   UNL     1      -0.672   0.148   0.591  0.00  0.00    +0.000 A 
ENDROOT
BRANCH   7  13
ATOM     13  O   UNL     1      -1.494   3.546  -1.676  0.00  0.00    +0.000 OA
BRANCH  13  14
ATOM     14  C   UNL     1      -1.830   3.155  -3.044  0.00  0.00    +0.000 C 
ATOM     15  C   UNL     1      -1.903   4.370  -3.986  0.00  0.00    +0.000 C 
ATOM     16  C   UNL     1      -0.713   2.184  -3.477  0.00  0.00    +0.000 C 
ATOM     17  C   UNL     1      -3.150   2.379  -3.137  0.00  0.00    +0.000 C 
ENDBRANCH  13  14
ENDBRANCH   7  13
TORSDOF 2
ENDMDL
MODEL 5
REMARK VINA RESULT:     0.000      4.344      6.067
REMARK INTER + INTRA:          -0.304
REMARK INTER:                   0.000
REMARK INTRA:                  -0.304
REMARK UNBOUND:                -0.304
REMARK  Name = 50986454
REMARK  5 active torsions:
REMARK  status: ('A' for Active; 'I' for Inactive)
REMARK    1  A    between atoms: O_2  and  C_7
REMARK    2  A    between atoms: O_2  and  C_12
REMARK    3  A    between atoms: C_7  and  C_8
REMARK    4  A    between atoms: C_7  and  C_9
REMARK    5  A    between atoms: C_7  and  C_10
REMARK                            x       y       z     vdW  Elec       q    Type
REMARK                         _______ _______ _______ _____ _____    ______ ____
ROOT
ATOM      1 BR   UNL     1       1.649  -3.640  -5.171  0.00  0.00    +0.000 Br
ATOM      2  O   UNL     1       4.000   0.742   1.394  0.00  0.00    +0.000 OA
ATOM      3  N   UNL     1       3.626  -0.276  -0.640  0.00  0.00    +0.000 N 
ATOM      4  N   UNL     1       4.513   0.576  -1.279  0.00  0.00    +0.000 NA
ATOM      5  N   UNL     1       2.143  -2.131  -1.323  0.00  0.00    +0.000 NA
ATOM      6  C   UNL     1       3.053  -1.162  -1.559  0.00  0.00    +0.000 A 
ATOM      7  C   UNL     1       3.437  -0.139   0.762  0.00  0.00    +0.000 C 
ATOM      8  C   UNL     1       3.602  -0.850  -2.803  0.00  0.00    +0.000 A 
ATOM      9  C   UNL     1       4.479   0.210  -2.560  0.00  0.00    +0.000 A 
ATOM     10  C   UNL     1       3.196  -1.591  -3.931  0.00  0.00    +0.000 A 
ATOM     11  C   UNL     1       2.258  -2.597  -3.720  0.00  0.00    +0.000 A 
ATOM     12  C   UNL     1       1.782  -2.814  -2.437  0.00  0.00    +0.000 A 
ENDROOT
BRANCH   7  13
ATOM     13  O   UNL     1       2.592  -1.083   1.265  0.00  0.00    +0.000 OA
BRANCH  13  14
ATOM     14  C   UNL     1       3.069  -2.107   2.193  0.00  0.00    +0.000 C 
ATOM     15  C   UNL     1       3.150  -1.580   3.636  0.00  0.00    +0.000 C 
ATOM     16  C   UNL     1       2.055  -3.263   2.081  0.00  0.00    +0.000 C 
ATOM     17  C   UNL     1       4.437  -2.680   1.798  0.00  0.00    +0.000 C 
ENDBRANCH  13  14
ENDBRANCH   7  13
TORSDOF 2
ENDMDL
MODEL 6
REMARK VINA RESULT:     0.000      5.455      6.316
REMARK INTER + INTRA:          -0.304
REMARK INTER:                   0.000
REMARK INTRA:                  -0.304
REMARK UNBOUND:                -0.304
REMARK  Name = 50986454
REMARK  5 active torsions:
REMARK  status: ('A' for Active; 'I' for Inactive)
REMARK    1  A    between atoms: O_2  and  C_7
REMARK    2  A    between atoms: O_2  and  C_12
REMARK    3  A    between atoms: C_7  and  C_8
REMARK    4  A    between atoms: C_7  and  C_9
REMARK    5  A    between atoms: C_7  and  C_10
REMARK                            x       y       z     vdW  Elec       q    Type
REMARK                         _______ _______ _______ _____ _____    ______ ____
ROOT
ATOM      1 BR   UNL     1       1.049  -5.556  -4.172  0.00  0.00    +0.000 Br
ATOM      2  O   UNL     1       2.106   2.593  -4.720  0.00  0.00    +0.000 OA
ATOM      3  N   UNL     1       2.155   0.318  -4.356  0.00  0.00    +0.000 N 
ATOM      4  N   UNL     1       3.408   0.394  -3.771  0.00  0.00    +0.000 NA
ATOM      5  N   UNL     1       0.555  -1.486  -4.897  0.00  0.00    +0.000 NA
ATOM      6  C   UNL     1       1.715  -1.010  -4.398  0.00  0.00    +0.000 A 
ATOM      7  C   UNL     1       1.534   1.516  -4.800  0.00  0.00    +0.000 C 
ATOM      8  C   UNL     1       2.727  -1.779  -3.822  0.00  0.00    +0.000 A 
ATOM      9  C   UNL     1       3.721  -0.865  -3.462  0.00  0.00    +0.000 A 
ATOM     10  C   UNL     1       2.555  -3.175  -3.734  0.00  0.00    +0.000 A 
ATOM     11  C   UNL     1       1.368  -3.696  -4.240  0.00  0.00    +0.000 A 
ATOM     12  C   UNL     1       0.436  -2.833  -4.793  0.00  0.00    +0.000 A 
ENDROOT
BRANCH   7  13
ATOM     13  O   UNL     1       0.281   1.301  -5.291  0.00  0.00    +0.000 OA
BRANCH  13  14
ATOM     14  C   UNL     1      -0.899   1.834  -4.612  0.00  0.00    +0.000 C 
ATOM     15  C   UNL     1      -1.144   3.311  -4.964  0.00  0.00    +0.000 C 
ATOM     16  C   UNL     1      -2.073   0.950  -5.080  0.00  0.00    +0.000 C 
ATOM     17  C   UNL     1      -0.824   1.695  -3.085  0.00  0.00    +0.000 C 
ENDBRANCH  13  14
ENDBRANCH   7  13
TORSDOF 2
ENDMDL
MODEL 7
REMARK VINA RESULT:     0.000      4.105      5.032
REMARK INTER + INTRA:          -0.304
REMARK INTER:                   0.000
REMARK INTRA:                  -0.304
REMARK UNBOUND:                -0.304
REMARK  Name = 50986454
REMARK  5 active torsions:
REMARK  status: ('A' for Active; 'I' for Inactive)
REMARK    1  A    between atoms: O_2  and  C_7
REMARK    2  A    between atoms: O_2  and  C_12
REMARK    3  A    between atoms: C_7  and  C_8
REMARK    4  A    between atoms: C_7  and  C_9
REMARK    5  A    between atoms: C_7  and  C_10
REMARK                            x       y       z     vdW  Elec       q    Type
REMARK                         _______ _______ _______ _____ _____    ______ ____
ROOT
ATOM      1 BR   UNL     1      -6.429  -0.581  -2.170  0.00  0.00    +0.000 Br
ATOM      2  O   UNL     1      -0.327   2.853   2.167  0.00  0.00    +0.000 OA
ATOM      3  N   UNL     1      -1.991   1.580   1.205  0.00  0.00    +0.000 N 
ATOM      4  N   UNL     1      -1.688   0.495   2.012  0.00  0.00    +0.000 NA
ATOM      5  N   UNL     1      -3.604   2.047  -0.607  0.00  0.00    +0.000 NA
ATOM      6  C   UNL     1      -3.036   1.260   0.330  0.00  0.00    +0.000 A 
ATOM      7  C   UNL     1      -1.251   2.781   1.369  0.00  0.00    +0.000 C 
ATOM      8  C   UNL     1      -3.390  -0.061   0.604  0.00  0.00    +0.000 A 
ATOM      9  C   UNL     1      -2.535  -0.463   1.634  0.00  0.00    +0.000 A 
ATOM     10  C   UNL     1      -4.427  -0.656  -0.142  0.00  0.00    +0.000 A 
ATOM     11  C   UNL     1      -5.034   0.130  -1.116  0.00  0.00    +0.000 A 
ATOM     12  C   UNL     1      -4.594   1.431  -1.299  0.00  0.00    +0.000 A 
ENDROOT
BRANCH   7  13
ATOM     13  O   UNL     1      -1.700   3.782   0.560  0.00  0.00    +0.000 OA
BRANCH  13  14
ATOM     14  C   UNL     1      -2.324   4.981   1.117  0.00  0.00    +0.000 C 
ATOM     15  C   UNL     1      -1.277   6.001   1.598  0.00  0.00    +0.000 C 
ATOM     16  C   UNL     1      -3.181   5.563  -0.026  0.00  0.00    +0.000 C 
ATOM     17  C   UNL     1      -3.283   4.674   2.275  0.00  0.00    +0.000 C 
ENDBRANCH  13  14
ENDBRANCH   7  13
TORSDOF 2
ENDMDL
MODEL 8
REMARK VINA RESULT:     0.000      5.602      6.433
REMARK INTER + INTRA:          -0.304
REMARK INTER:                   0.000
REMARK INTRA:                  -0.304
REMARK UNBOUND:                -0.304
REMARK  Name = 50986454
REMARK  5 active torsions:
REMARK  status: ('A' for Active; 'I' for Inactive)
REMARK    1  A    between atoms: O_2  and  C_7
REMARK    2  A    between atoms: O_2  and  C_12
REMARK    3  A    between atoms: C_7  and  C_8
REMARK    4  A    between atoms: C_7  and  C_9
REMARK    5  A    between atoms: C_7  and  C_10
REMARK                            x       y       z     vdW  Elec       q    Type
REMARK                         _______ _______ _______ _____ _____    ______ ____
ROOT
ATOM      1 BR   UNL     1      -6.905  -2.046  -1.241  0.00  0.00    +0.000 Br
ATOM      2  O   UNL     1      -2.911   2.789   4.096  0.00  0.00    +0.000 OA
ATOM      3  N   UNL     1      -3.983   1.149   2.882  0.00  0.00    +0.000 N 
ATOM      4  N   UNL     1      -3.660   0.182   3.821  0.00  0.00    +0.000 NA
ATOM      5  N   UNL     1      -5.170   1.192   0.716  0.00  0.00    +0.000 NA
ATOM      6  C   UNL     1      -4.691   0.579   1.818  0.00  0.00    +0.000 A 
ATOM      7  C   UNL     1      -3.577   2.490   3.116  0.00  0.00    +0.000 C 
ATOM      8  C   UNL     1      -4.812  -0.781   2.108  0.00  0.00    +0.000 A 
ATOM      9  C   UNL     1      -4.166  -0.952   3.336  0.00  0.00    +0.000 A 
ATOM     10  C   UNL     1      -5.486  -1.614   1.193  0.00  0.00    +0.000 A 
ATOM     11  C   UNL     1      -5.991  -1.011   0.045  0.00  0.00    +0.000 A 
ATOM     12  C   UNL     1      -5.808   0.350  -0.135  0.00  0.00    +0.000 A 
ENDROOT
BRANCH   7  13
ATOM     13  O   UNL     1      -4.019   3.342   2.148  0.00  0.00    +0.000 OA
BRANCH  13  14
ATOM     14  C   UNL     1      -5.000   4.383   2.448  0.00  0.00    +0.000 C 
ATOM     15  C   UNL     1      -4.342   5.626   3.075  0.00  0.00    +0.000 C 
ATOM     16  C   UNL     1      -5.658   4.726   1.096  0.00  0.00    +0.000 C 
ATOM     17  C   UNL     1      -6.123   3.898   3.375  0.00  0.00    +0.000 C 
ENDBRANCH  13  14
ENDBRANCH   7  13
TORSDOF 2
ENDMDL
MODEL 9
REMARK VINA RESULT:     0.000      3.810      5.512
REMARK INTER + INTRA:          -0.304
REMARK INTER:                   0.000
REMARK INTRA:                  -0.304
REMARK UNBOUND:                -0.304
REMARK  Name = 50986454
REMARK  5 active torsions:
REMARK  status: ('A' for Active; 'I' for Inactive)
REMARK    1  A    between atoms: O_2  and  C_7
REMARK    2  A    between atoms: O_2  and  C_12
REMARK    3  A    between atoms: C_7  and  C_8
REMARK    4  A    between atoms: C_7  and  C_9
REMARK    5  A    between atoms: C_7  and  C_10
REMARK                            x       y       z     vdW  Elec       q    Type
REMARK                         _______ _______ _______ _____ _____    ______ ____
ROOT
ATOM      1 BR   UNL     1       2.167  -0.792   3.089  0.00  0.00    +0.000 Br
ATOM      2  O   UNL     1      -3.712   2.021  -1.946  0.00  0.00    +0.000 OA
ATOM      3  N   UNL     1      -1.838   1.219  -0.870  0.00  0.00    +0.000 N 
ATOM      4  N   UNL     1      -1.163   1.061  -2.069  0.00  0.00    +0.000 NA
ATOM      5  N   UNL     1      -1.347   0.789   1.514  0.00  0.00    +0.000 NA
ATOM      6  C   UNL     1      -1.040   0.797   0.200  0.00  0.00    +0.000 A 
ATOM      7  C   UNL     1      -3.155   1.752  -0.892  0.00  0.00    +0.000 C 
ATOM      8  C   UNL     1       0.166   0.365  -0.355  0.00  0.00    +0.000 A 
ATOM      9  C   UNL     1       0.023   0.554  -1.732  0.00  0.00    +0.000 A 
ATOM     10  C   UNL     1       1.171  -0.126   0.502  0.00  0.00    +0.000 A 
ATOM     11  C   UNL     1       0.885  -0.147   1.863  0.00  0.00    +0.000 A 
ATOM     12  C   UNL     1      -0.351   0.307   2.297  0.00  0.00    +0.000 A 
ENDROOT
BRANCH   7  13
ATOM     13  O   UNL     1      -3.670   1.915   0.360  0.00  0.00    +0.000 OA
BRANCH  13  14
ATOM     14  C   UNL     1      -3.953   3.247   0.893  0.00  0.00    +0.000 C 
ATOM     15  C   UNL     1      -5.304   3.788   0.395  0.00  0.00    +0.000 C 
ATOM     16  C   UNL     1      -3.953   3.081   2.426  0.00  0.00    +0.000 C 
ATOM     17  C   UNL     1      -2.858   4.269   0.560  0.00  0.00    +0.000 C 
ENDBRANCH  13  14
ENDBRANCH   7  13
TORSDOF 2
ENDMDL
MODEL 10
REMARK VINA RESULT:     0.000      5.096      6.883
REMARK INTER + INTRA:          -0.304
REMARK INTER:                   0.000
REMARK INTRA:                  -0.304
REMARK UNBOUND:                -0.304
REMARK  Name = 50986454
REMARK  5 active torsions:
REMARK  status: ('A' for Active; 'I' for Inactive)
REMARK    1  A    between atoms: O_2  and  C_7
REMARK    2  A    between atoms: O_2  and  C_12
REMARK    3  A    between atoms: C_7  and  C_8
REMARK    4  A    between atoms: C_7  and  C_9
REMARK    5  A    between atoms: C_7  and  C_10
REMARK                            x       y       z     vdW  Elec       q    Type
REMARK                         _______ _______ _______ _____ _____    ______ ____
ROOT
ATOM      1 BR   UNL     1       4.418   2.777   2.211  0.00  0.00    +0.000 Br
ATOM      2  O   UNL     1      -3.418   4.573   0.423  0.00  0.00    +0.000 OA
ATOM      3  N   UNL     1      -1.150   4.452   0.815  0.00  0.00    +0.000 N 
ATOM      4  N   UNL     1      -0.947   5.720   0.295  0.00  0.00    +0.000 NA
ATOM      5  N   UNL     1       0.282   2.670   1.754  0.00  0.00    +0.000 NA
ATOM      6  C   UNL     1       0.068   3.887   1.212  0.00  0.00    +0.000 A 
ATOM      7  C   UNL     1      -2.474   3.939   0.870  0.00  0.00    +0.000 C 
ATOM      8  C   UNL     1       1.053   4.834   0.929  0.00  0.00    +0.000 A 
ATOM      9  C   UNL     1       0.368   5.921   0.377  0.00  0.00    +0.000 A 
ATOM     10  C   UNL     1       2.396   4.528   1.225  0.00  0.00    +0.000 A 
ATOM     11  C   UNL     1       2.649   3.280   1.785  0.00  0.00    +0.000 A 
ATOM     12  C   UNL     1       1.588   2.420   2.019  0.00  0.00    +0.000 A 
ENDROOT
BRANCH   7  13
ATOM     13  O   UNL     1      -2.531   2.714   1.465  0.00  0.00    +0.000 OA
BRANCH  13  14
ATOM     14  C   UNL     1      -3.214   2.526   2.744  0.00  0.00    +0.000 C 
ATOM     15  C   UNL     1      -4.735   2.379   2.565  0.00  0.00    +0.000 C 
ATOM     16  C   UNL     1      -2.600   1.247   3.349  0.00  0.00    +0.000 C 
ATOM     17  C   UNL     1      -2.940   3.661   3.740  0.00  0.00    +0.000 C 
ENDBRANCH  13  14
ENDBRANCH   7  13
TORSDOF 2
ENDMDL
MODEL 11
REMARK VINA RESULT:     0.000      3.145      4.848
REMARK INTER + INTRA:          -0.304
REMARK INTER:                   0.000
REMARK INTRA:                  -0.304
REMARK UNBOUND:                -0.304
REMARK  Name = 50986454
REMARK  5 active torsions:
REMARK  status: ('A' for Active; 'I' for Inactive)
REMARK    1  A    between atoms: O_2  and  C_7
REMARK    2  A    between atoms: O_2  and  C_12
REMARK    3  A    between atoms: C_7  and  C_8
REMARK    4  A    between atoms: C_7  and  C_9
REMARK    5  A    between atoms: C_7  and  C_10
REMARK                            x       y       z     vdW  Elec       q    Type
REMARK                         _______ _______ _______ _____ _____    ______ ____
ROOT
ATOM      1 BR   UNL     1      -6.030   1.164  -1.251  0.00  0.00    +0.000 Br
ATOM      2  O   UNL     1       0.790  -3.408  -0.603  0.00  0.00    +0.000 OA
ATOM      3  N   UNL     1      -1.170  -2.318  -1.137  0.00  0.00    +0.000 N 
ATOM      4  N   UNL     1      -1.203  -2.900  -2.394  0.00  0.00    +0.000 NA
ATOM      5  N   UNL     1      -2.565  -0.702   0.107  0.00  0.00    +0.000 NA
ATOM      6  C   UNL     1      -2.258  -1.453  -0.971  0.00  0.00    +0.000 A 
ATOM      7  C   UNL     1      -0.110  -2.658  -0.254  0.00  0.00    +0.000 C 
ATOM      8  C   UNL     1      -2.986  -1.503  -2.160  0.00  0.00    +0.000 A 
ATOM      9  C   UNL     1      -2.292  -2.400  -2.977  0.00  0.00    +0.000 A 
ATOM     10  C   UNL     1      -4.148  -0.715  -2.280  0.00  0.00    +0.000 A 
ATOM     11  C   UNL     1      -4.492   0.071  -1.184  0.00  0.00    +0.000 A 
ATOM     12  C   UNL     1      -3.689   0.039  -0.056  0.00  0.00    +0.000 A 
ENDROOT
BRANCH   7  13
ATOM     13  O   UNL     1      -0.241  -2.065   0.966  0.00  0.00    +0.000 OA
BRANCH  13  14
ATOM     14  C   UNL     1      -0.488  -2.859   2.169  0.00  0.00    +0.000 C 
ATOM     15  C   UNL     1       0.810  -3.462   2.734  0.00  0.00    +0.000 C 
ATOM     16  C   UNL     1      -1.131  -1.883   3.176  0.00  0.00    +0.000 C 
ATOM     17  C   UNL     1      -1.501  -3.989   1.942  0.00  0.00    +0.000 C 
ENDBRANCH  13  14
ENDBRANCH   7  13
TORSDOF 2
ENDMDL
MODEL 12
REMARK VINA RESULT:     0.000      2.946      4.227
REMARK INTER + INTRA:          -0.304
REMARK INTER:                   0.000
REMARK INTRA:                  -0.304
REMARK UNBOUND:                -0.304
REMARK  Name = 50986454
REMARK  5 active torsions:
REMARK  status: ('A' for Active; 'I' for Inactive)
REMARK    1  A    between atoms: O_2  and  C_7
REMARK    2  A    between atoms: O_2  and  C_12
REMARK    3  A    between atoms: C_7  and  C_8
REMARK    4  A    between atoms: C_7  and  C_9
REMARK    5  A    between atoms: C_7  and  C_10
REMARK                            x       y       z     vdW  Elec       q    Type
REMARK                         _______ _______ _______ _____ _____    ______ ____
ROOT
ATOM      1 BR   UNL     1       3.368  -0.295   3.734  0.00  0.00    +0.000 Br
ATOM      2  O   UNL     1      -3.707  -0.507  -0.475  0.00  0.00    +0.000 OA
ATOM      3  N   UNL     1      -1.963  -0.455   1.031  0.00  0.00    +0.000 N 
ATOM      4  N   UNL     1      -2.833  -0.338   2.103  0.00  0.00    +0.000 NA
ATOM      5  N   UNL     1       0.489  -0.527   0.737  0.00  0.00    +0.000 NA
ATOM      6  C   UNL     1      -0.636  -0.442   1.476  0.00  0.00    +0.000 A 
ATOM      7  C   UNL     1      -2.503  -0.565  -0.279  0.00  0.00    +0.000 C 
ATOM      8  C   UNL     1      -0.687  -0.314   2.865  0.00  0.00    +0.000 A 
ATOM      9  C   UNL     1      -2.048  -0.258   3.177  0.00  0.00    +0.000 A 
ATOM     10  C   UNL     1       0.521  -0.268   3.589  0.00  0.00    +0.000 A 
ATOM     11  C   UNL     1       1.700  -0.353   2.854  0.00  0.00    +0.000 A 
ATOM     12  C   UNL     1       1.625  -0.476   1.476  0.00  0.00    +0.000 A 
ENDROOT
BRANCH   7  13
ATOM     13  O   UNL     1      -1.537  -0.742  -1.224  0.00  0.00    +0.000 OA
BRANCH  13  14
ATOM     14  C   UNL     1      -1.436  -1.991  -1.977  0.00  0.00    +0.000 C 
ATOM     15  C   UNL     1      -2.428  -2.033  -3.153  0.00  0.00    +0.000 C 
ATOM     16  C   UNL     1       0.021  -2.048  -2.479  0.00  0.00    +0.000 C 
ATOM     17  C   UNL     1      -1.652  -3.235  -1.105  0.00  0.00    +0.000 C 
ENDBRANCH  13  14
ENDBRANCH   7  13
TORSDOF 2
ENDMDL
MODEL 13
REMARK VINA RESULT:     0.000      5.048      6.812
REMARK INTER + INTRA:          -0.304
REMARK INTER:                   0.000
REMARK INTRA:                  -0.304
REMARK UNBOUND:                -0.304
REMARK  Name = 50986454
REMARK  5 active torsions:
REMARK  status: ('A' for Active; 'I' for Inactive)
REMARK    1  A    between atoms: O_2  and  C_7
REMARK    2  A    between atoms: O_2  and  C_12
REMARK    3  A    between atoms: C_7  and  C_8
REMARK    4  A    between atoms: C_7  and  C_9
REMARK    5  A    between atoms: C_7  and  C_10
REMARK                            x       y       z     vdW  Elec       q    Type
REMARK                         _______ _______ _______ _____ _____    ______ ____
ROOT
ATOM      1 BR   UNL     1      -0.799   6.069  -1.408  0.00  0.00    +0.000 Br
ATOM      2  O   UNL     1      -5.177  -0.257  -4.348  0.00  0.00    +0.000 OA
ATOM      3  N   UNL     1      -4.311   1.679  -3.443  0.00  0.00    +0.000 N 
ATOM      4  N   UNL     1      -5.572   2.240  -3.325  0.00  0.00    +0.000 NA
ATOM      5  N   UNL     1      -1.996   2.399  -2.965  0.00  0.00    +0.000 NA
ATOM      6  C   UNL     1      -3.333   2.577  -3.000  0.00  0.00    +0.000 A 
ATOM      7  C   UNL     1      -4.195   0.361  -3.962  0.00  0.00    +0.000 C 
ATOM      8  C   UNL     1      -4.010   3.728  -2.594  0.00  0.00    +0.000 A 
ATOM      9  C   UNL     1      -5.363   3.455  -2.817  0.00  0.00    +0.000 A 
ATOM     10  C   UNL     1      -3.264   4.816  -2.099  0.00  0.00    +0.000 A 
ATOM     11  C   UNL     1      -1.882   4.663  -2.051  0.00  0.00    +0.000 A 
ATOM     12  C   UNL     1      -1.322   3.473  -2.484  0.00  0.00    +0.000 A 
ENDROOT
BRANCH   7  13
ATOM     13  O   UNL     1      -2.908  -0.087  -3.958  0.00  0.00    +0.000 OA
BRANCH  13  14
ATOM     14  C   UNL     1      -2.497  -1.199  -3.103  0.00  0.00    +0.000 C 
ATOM     15  C   UNL     1      -2.844  -2.561  -3.729  0.00  0.00    +0.000 C 
ATOM     16  C   UNL     1      -0.973  -1.040  -2.931  0.00  0.00    +0.000 C 
ATOM     17  C   UNL     1      -3.109  -1.131  -1.698  0.00  0.00    +0.000 C 
ENDBRANCH  13  14
ENDBRANCH   7  13
TORSDOF 2
ENDMDL
MODEL 14
REMARK VINA RESULT:     0.000      4.142      5.792
REMARK INTER + INTRA:          -0.304
REMARK INTER:                   0.000
REMARK INTRA:                  -0.304
REMARK UNBOUND:                -0.304
REMARK  Name = 50986454
REMARK  5 active torsions:
REMARK  status: ('A' for Active; 'I' for Inactive)
REMARK    1  A    between atoms: O_2  and  C_7
REMARK    2  A    between atoms: O_2  and  C_12
REMARK    3  A    between atoms: C_7  and  C_8
REMARK    4  A    between atoms: C_7  and  C_9
REMARK    5  A    between atoms: C_7  and  C_10
REMARK                            x       y       z     vdW  Elec       q    Type
REMARK                         _______ _______ _______ _____ _____    ______ ____
ROOT
ATOM      1 BR   UNL     1      -3.221   5.484   1.681  0.00  0.00    +0.000 Br
ATOM      2  O   UNL     1      -4.267  -2.671   2.162  0.00  0.00    +0.000 OA
ATOM      3  N   UNL     1      -4.363  -0.368   2.132  0.00  0.00    +0.000 N 
ATOM      4  N   UNL     1      -5.731  -0.379   2.351  0.00  0.00    +0.000 NA
ATOM      5  N   UNL     1      -2.637   1.363   1.776  0.00  0.00    +0.000 NA
ATOM      6  C   UNL     1      -3.900   0.946   2.003  0.00  0.00    +0.000 A 
ATOM      7  C   UNL     1      -3.671  -1.608   2.073  0.00  0.00    +0.000 C 
ATOM      8  C   UNL     1      -5.014   1.773   2.148  0.00  0.00    +0.000 A 
ATOM      9  C   UNL     1      -6.090   0.905   2.358  0.00  0.00    +0.000 A 
ATOM     10  C   UNL     1      -4.842   3.169   2.057  0.00  0.00    +0.000 A 
ATOM     11  C   UNL     1      -3.550   3.631   1.824  0.00  0.00    +0.000 A 
ATOM     12  C   UNL     1      -2.521   2.712   1.694  0.00  0.00    +0.000 A 
ENDROOT
BRANCH   7  13
ATOM     13  O   UNL     1      -2.326  -1.444   1.921  0.00  0.00    +0.000 OA
BRANCH  13  14
ATOM     14  C   UNL     1      -1.393  -1.835   2.975  0.00  0.00    +0.000 C 
ATOM     15  C   UNL     1      -1.093  -3.344   2.944  0.00  0.00    +0.000 C 
ATOM     16  C   UNL     1      -0.116  -1.010   2.717  0.00  0.00    +0.000 C 
ATOM     17  C   UNL     1      -1.884  -1.458   4.379  0.00  0.00    +0.000 C 
ENDBRANCH  13  14
ENDBRANCH   7  13
TORSDOF 2
ENDMDL
MODEL 15
REMARK VINA RESULT:     0.000      2.778      3.776
REMARK INTER + INTRA:          -0.304
REMARK INTER:                   0.000
REMARK INTRA:                  -0.304
REMARK UNBOUND:                -0.304
REMARK  Name = 50986454
REMARK  5 active torsions:
REMARK  status: ('A' for Active; 'I' for Inactive)
REMARK    1  A    between atoms: O_2  and  C_7
REMARK    2  A    between atoms: O_2  and  C_12
REMARK    3  A    between atoms: C_7  and  C_8
REMARK    4  A    between atoms: C_7  and  C_9
REMARK    5  A    between atoms: C_7  and  C_10
REMARK                            x       y       z     vdW  Elec       q    Type
REMARK                         _______ _______ _______ _____ _____    ______ ____
ROOT
ATOM      1 BR   UNL     1      -5.009  -0.681  -0.116  0.00  0.00    +0.000 Br
ATOM      2  O   UNL     1       1.985   3.413  -1.578  0.00  0.00    +0.000 OA
ATOM      3  N   UNL     1      -0.147   2.560  -1.384  0.00  0.00    +0.000 N 
ATOM      4  N   UNL     1      -0.695   3.671  -2.005  0.00  0.00    +0.000 NA
ATOM      5  N   UNL     1      -1.020   0.478  -0.380  0.00  0.00    +0.000 NA
ATOM      6  C   UNL     1      -1.155   1.663  -1.010  0.00  0.00    +0.000 A 
ATOM      7  C   UNL     1       1.263   2.493  -1.225  0.00  0.00    +0.000 C 
ATOM      8  C   UNL     1      -2.362   2.236  -1.413  0.00  0.00    +0.000 A 
ATOM      9  C   UNL     1      -2.010   3.450  -2.010  0.00  0.00    +0.000 A 
ATOM     10  C   UNL     1      -3.562   1.543  -1.157  0.00  0.00    +0.000 A 
ATOM     11  C   UNL     1      -3.456   0.318  -0.507  0.00  0.00    +0.000 A 
ATOM     12  C   UNL     1      -2.201  -0.149  -0.153  0.00  0.00    +0.000 A 
ENDROOT
BRANCH   7  13
ATOM     13  O   UNL     1       1.666   1.319  -0.661  0.00  0.00    +0.000 OA
BRANCH  13  14
ATOM     14  C   UNL     1       2.463   0.353  -1.416  0.00  0.00    +0.000 C 
ATOM     15  C   UNL     1       3.956   0.724  -1.423  0.00  0.00    +0.000 C 
ATOM     16  C   UNL     1       2.231  -1.002  -0.715  0.00  0.00    +0.000 C 
ATOM     17  C   UNL     1       1.987   0.187  -2.865  0.00  0.00    +0.000 C 
ENDBRANCH  13  14
ENDBRANCH   7  13
TORSDOF 2
ENDMDL
MODEL 16
REMARK VINA RESULT:     0.000      4.748      7.329
REMARK INTER + INTRA:          -0.304
REMARK INTER:                   0.000
REMARK INTRA:                  -0.304
REMARK UNBOUND:                -0.304
REMARK  Name = 50986454
REMARK  5 active torsions:
REMARK  status: ('A' for Active; 'I' for Inactive)
REMARK    1  A    between atoms: O_2  and  C_7
REMARK    2  A    between atoms: O_2  and  C_12
REMARK    3  A    between atoms: C_7  and  C_8
REMARK    4  A    between atoms: C_7  and  C_9
REMARK    5  A    between atoms: C_7  and  C_10
REMARK                            x       y       z     vdW  Elec       q    Type
REMARK                         _______ _______ _______ _____ _____    ______ ____
ROOT
ATOM      1 BR   UNL     1       0.809  -2.068  -2.368  0.00  0.00    +0.000 Br
ATOM      2  O   UNL     1      -7.348  -1.934  -1.236  0.00  0.00    +0.000 OA
ATOM      3  N   UNL     1      -5.146  -1.789  -1.903  0.00  0.00    +0.000 N 
ATOM      4  N   UNL     1      -5.510  -1.296  -3.146  0.00  0.00    +0.000 NA
ATOM      5  N   UNL     1      -3.026  -2.372  -0.777  0.00  0.00    +0.000 NA
ATOM      6  C   UNL     1      -3.756  -1.921  -1.818  0.00  0.00    +0.000 A 
ATOM      7  C   UNL     1      -6.166  -2.071  -0.955  0.00  0.00    +0.000 C 
ATOM      8  C   UNL     1      -3.243  -1.496  -3.045  0.00  0.00    +0.000 A 
ATOM      9  C   UNL     1      -4.360  -1.130  -3.801  0.00  0.00    +0.000 A 
ATOM     10  C   UNL     1      -1.849  -1.526  -3.247  0.00  0.00    +0.000 A 
ATOM     11  C   UNL     1      -1.069  -1.987  -2.190  0.00  0.00    +0.000 A 
ATOM     12  C   UNL     1      -1.692  -2.384  -1.019  0.00  0.00    +0.000 A 
ENDROOT
BRANCH   7  13
ATOM     13  O   UNL     1      -5.662  -2.483   0.242  0.00  0.00    +0.000 OA
BRANCH  13  14
ATOM     14  C   UNL     1      -5.815  -1.669   1.447  0.00  0.00    +0.000 C 
ATOM     15  C   UNL     1      -7.196  -1.863   2.097  0.00  0.00    +0.000 C 
ATOM     16  C   UNL     1      -4.687  -2.127   2.394  0.00  0.00    +0.000 C 
ATOM     17  C   UNL     1      -5.595  -0.173   1.190  0.00  0.00    +0.000 C 
ENDBRANCH  13  14
ENDBRANCH   7  13
TORSDOF 2
ENDMDL
MODEL 17
REMARK VINA RESULT:     0.000      4.012      5.308
REMARK INTER + INTRA:          -0.304
REMARK INTER:                   0.000
REMARK INTRA:                  -0.304
REMARK UNBOUND:                -0.304
REMARK  Name = 50986454
REMARK  5 active torsions:
REMARK  status: ('A' for Active; 'I' for Inactive)
REMARK    1  A    between atoms: O_2  and  C_7
REMARK    2  A    between atoms: O_2  and  C_12
REMARK    3  A    between atoms: C_7  and  C_8
REMARK    4  A    between atoms: C_7  and  C_9
REMARK    5  A    between atoms: C_7  and  C_10
REMARK                            x       y       z     vdW  Elec       q    Type
REMARK                         _______ _______ _______ _____ _____    ______ ____
ROOT
ATOM      1 BR   UNL     1       2.264  -2.324  -3.814  0.00  0.00    +0.000 Br
ATOM      2  O   UNL     1      -3.189   2.067   0.522  0.00  0.00    +0.000 OA
ATOM      3  N   UNL     1      -1.733   0.548  -0.419  0.00  0.00    +0.000 N 
ATOM      4  N   UNL     1      -1.912  -0.340   0.629  0.00  0.00    +0.000 NA
ATOM      5  N   UNL     1      -0.375   0.607  -2.483  0.00  0.00    +0.000 NA
ATOM      6  C   UNL     1      -0.813   0.036  -1.341  0.00  0.00    +0.000 A 
ATOM      7  C   UNL     1      -2.458   1.770  -0.411  0.00  0.00    +0.000 C 
ATOM      8  C   UNL     1      -0.412  -1.207  -0.849  0.00  0.00    +0.000 A 
ATOM      9  C   UNL     1      -1.118  -1.372   0.346  0.00  0.00    +0.000 A 
ATOM     10  C   UNL     1       0.528  -1.958  -1.583  0.00  0.00    +0.000 A 
ATOM     11  C   UNL     1       0.999  -1.396  -2.766  0.00  0.00    +0.000 A 
ATOM     12  C   UNL     1       0.529  -0.151  -3.152  0.00  0.00    +0.000 A 
ENDROOT
BRANCH   7  13
ATOM     13  O   UNL     1      -2.236   2.513  -1.532  0.00  0.00    +0.000 OA
BRANCH  13  14
ATOM     14  C   UNL     1      -3.304   2.760  -2.499  0.00  0.00    +0.000 C 
ATOM     15  C   UNL     1      -4.219   3.916  -2.058  0.00  0.00    +0.000 C 
ATOM     16  C   UNL     1      -2.587   3.094  -3.823  0.00  0.00    +0.000 C 
ATOM     17  C   UNL     1      -4.168   1.520  -2.765  0.00  0.00    +0.000 C 
ENDBRANCH  13  14
ENDBRANCH   7  13
TORSDOF 2
ENDMDL
MODEL 18
REMARK VINA RESULT:     0.000      4.690      6.218
REMARK INTER + INTRA:          -0.304
REMARK INTER:                   0.000
REMARK INTRA:                  -0.304
REMARK UNBOUND:                -0.304
REMARK  Name = 50986454
REMARK  5 active torsions:
REMARK  status: ('A' for Active; 'I' for Inactive)
REMARK    1  A    between atoms: O_2  and  C_7
REMARK    2  A    between atoms: O_2  and  C_12
REMARK    3  A    between atoms: C_7  and  C_8
REMARK    4  A    between atoms: C_7  and  C_9
REMARK    5  A    between atoms: C_7  and  C_10
REMARK                            x       y       z     vdW  Elec       q    Type
REMARK                         _______ _______ _______ _____ _____    ______ ____
ROOT
ATOM      1 BR   UNL     1      -8.656   2.191  -3.322  0.00  0.00    +0.000 Br
ATOM      2  O   UNL     1      -0.627   0.413  -3.764  0.00  0.00    +0.000 OA
ATOM      3  N   UNL     1      -2.929   0.526  -3.751  0.00  0.00    +0.000 N 
ATOM      4  N   UNL     1      -3.039  -0.754  -4.268  0.00  0.00    +0.000 NA
ATOM      5  N   UNL     1      -4.502   2.317  -3.099  0.00  0.00    +0.000 NA
ATOM      6  C   UNL     1      -4.198   1.090  -3.572  0.00  0.00    +0.000 A 
ATOM      7  C   UNL     1      -1.634   1.049  -3.492  0.00  0.00    +0.000 C 
ATOM      8  C   UNL     1      -5.120   0.130  -3.990  0.00  0.00    +0.000 A 
ATOM      9  C   UNL     1      -4.350  -0.963  -4.398  0.00  0.00    +0.000 A 
ATOM     10  C   UNL     1      -6.494   0.434  -3.925  0.00  0.00    +0.000 A 
ATOM     11  C   UNL     1      -6.840   1.692  -3.441  0.00  0.00    +0.000 A 
ATOM     12  C   UNL     1      -5.834   2.563  -3.057  0.00  0.00    +0.000 A 
ENDROOT
BRANCH   7  13
ATOM     13  O   UNL     1      -1.679   2.287  -2.923  0.00  0.00    +0.000 OA
BRANCH  13  14
ATOM     14  C   UNL     1      -1.216   2.507  -1.554  0.00  0.00    +0.000 C 
ATOM     15  C   UNL     1       0.314   2.661  -1.485  0.00  0.00    +0.000 C 
ATOM     16  C   UNL     1      -1.925   3.794  -1.086  0.00  0.00    +0.000 C 
ATOM     17  C   UNL     1      -1.645   1.392  -0.591  0.00  0.00    +0.000 C 
ENDBRANCH  13  14
ENDBRANCH   7  13
TORSDOF 2
ENDMDL
MODEL 19
REMARK VINA RESULT:     0.001      2.421      2.660
REMARK INTER + INTRA:          -0.303
REMARK INTER:                   0.000
REMARK INTRA:                  -0.303
REMARK UNBOUND:                -0.304
REMARK  Name = 50986454
REMARK  5 active torsions:
REMARK  status: ('A' for Active; 'I' for Inactive)
REMARK    1  A    between atoms: O_2  and  C_7
REMARK    2  A    between atoms: O_2  and  C_12
REMARK    3  A    between atoms: C_7  and  C_8
REMARK    4  A    between atoms: C_7  and  C_9
REMARK    5  A    between atoms: C_7  and  C_10
REMARK                            x       y       z     vdW  Elec       q    Type
REMARK                         _______ _______ _______ _____ _____    ______ ____
ROOT
ATOM      1 BR   UNL     1      -2.872   0.066   3.074  0.00  0.00    +0.000 Br
ATOM      2  O   UNL     1       3.867   2.566  -0.947  0.00  0.00    +0.000 OA
ATOM      3  N   UNL     1       2.008   2.220   0.371  0.00  0.00    +0.000 N 
ATOM      4  N   UNL     1       2.245   3.381   1.088  0.00  0.00    +0.000 NA
ATOM      5  N   UNL     1       0.331   0.406   0.437  0.00  0.00    +0.000 NA
ATOM      6  C   UNL     1       0.874   1.564   0.866  0.00  0.00    +0.000 A 
ATOM      7  C   UNL     1       2.887   1.881  -0.692  0.00  0.00    +0.000 C 
ATOM      8  C   UNL     1       0.396   2.344   1.920  0.00  0.00    +0.000 A 
ATOM      9  C   UNL     1       1.273   3.430   1.998  0.00  0.00    +0.000 A 
ATOM     10  C   UNL     1      -0.751   1.915   2.617  0.00  0.00    +0.000 A 
ATOM     11  C   UNL     1      -1.334   0.724   2.198  0.00  0.00    +0.000 A 
ATOM     12  C   UNL     1      -0.768   0.033   1.139  0.00  0.00    +0.000 A 
ENDROOT
BRANCH   7  13
ATOM     13  O   UNL     1       2.495   0.754  -1.351  0.00  0.00    +0.000 OA
BRANCH  13  14
ATOM     14  C   UNL     1       2.049   0.807  -2.742  0.00  0.00    +0.000 C 
ATOM     15  C   UNL     1       3.234   0.825  -3.723  0.00  0.00    +0.000 C 
ATOM     16  C   UNL     1       1.182  -0.453  -2.941  0.00  0.00    +0.000 C 
ATOM     17  C   UNL     1       1.146   2.013  -3.035  0.00  0.00    +0.000 C 
ENDBRANCH  13  14
ENDBRANCH   7  13
TORSDOF 2
ENDMDL
MODEL 20
REMARK VINA RESULT:     0.001      3.922      5.434
REMARK INTER + INTRA:          -0.303
REMARK INTER:                   0.000
REMARK INTRA:                  -0.303
REMARK UNBOUND:                -0.304
REMARK  Name = 50986454
REMARK  5 active torsions:
REMARK  status: ('A' for Active; 'I' for Inactive)
REMARK    1  A    between atoms: O_2  and  C_7
REMARK    2  A    between atoms: O_2  and  C_12
REMARK    3  A    between atoms: C_7  and  C_8
REMARK    4  A    between atoms: C_7  and  C_9
REMARK    5  A    between atoms: C_7  and  C_10
REMARK                            x       y       z     vdW  Elec       q    Type
REMARK                         _______ _______ _______ _____ _____    ______ ____
ROOT
ATOM      1 BR   UNL     1      -6.443   4.334   3.170  0.00  0.00    +0.000 Br
ATOM      2  O   UNL     1      -1.762   0.358  -2.317  0.00  0.00    +0.000 OA
ATOM      3  N   UNL     1      -3.179   1.703  -1.094  0.00  0.00    +0.000 N 
ATOM      4  N   UNL     1      -3.387   2.543  -2.176  0.00  0.00    +0.000 NA
ATOM      5  N   UNL     1      -3.928   1.622   1.259  0.00  0.00    +0.000 NA
ATOM      6  C   UNL     1      -3.884   2.163   0.024  0.00  0.00    +0.000 A 
ATOM      7  C   UNL     1      -2.338   0.570  -1.260  0.00  0.00    +0.000 C 
ATOM      8  C   UNL     1      -4.548   3.323  -0.378  0.00  0.00    +0.000 A 
ATOM      9  C   UNL     1      -4.204   3.494  -1.722  0.00  0.00    +0.000 A 
ATOM     10  C   UNL     1      -5.343   4.012   0.560  0.00  0.00    +0.000 A 
ATOM     11  C   UNL     1      -5.408   3.478   1.843  0.00  0.00    +0.000 A 
ATOM     12  C   UNL     1      -4.702   2.321   2.127  0.00  0.00    +0.000 A 
ENDROOT
BRANCH   7  13
ATOM     13  O   UNL     1      -2.279  -0.202  -0.138  0.00  0.00    +0.000 OA
BRANCH  13  14
ATOM     14  C   UNL     1      -2.829  -1.556  -0.122  0.00  0.00    +0.000 C 
ATOM     15  C   UNL     1      -1.854  -2.578  -0.732  0.00  0.00    +0.000 C 
ATOM     16  C   UNL     1      -3.102  -1.868   1.363  0.00  0.00    +0.000 C 
ATOM     17  C   UNL     1      -4.176  -1.663  -0.850  0.00  0.00    +0.000 C 
ENDBRANCH  13  14
ENDBRANCH   7  13
TORSDOF 2
ENDMDL
