MODEL 1
REMARK VINA RESULT:     0.000      0.000      0.000
REMARK INTER + INTRA:          -1.795
REMARK INTER:                   0.000
REMARK INTRA:                  -1.795
REMARK UNBOUND:                -1.795
REMARK  Name = 177990
REMARK  13 active torsions:
REMARK  status: ('A' for Active; 'I' for Inactive)
REMARK    1  A    between atoms: N_1  and  C_10
REMARK    2  A    between atoms: N_2  and  C_11
REMARK    3  A    between atoms: N_2  and  C_12
REMARK    4  A    between atoms: C_7  and  C_16
REMARK    5  A    between atoms: C_8  and  C_17
REMARK    6  A    between atoms: C_11  and  C_13
REMARK    7  A    between atoms: C_12  and  C_23
REMARK    8  A    between atoms: C_13  and  C_19
REMARK    9  A    between atoms: C_14  and  C_24
REMARK   10  A    between atoms: C_15  and  C_25
REMARK   11  A    between atoms: C_18  and  C_26
REMARK   12  A    between atoms: C_19  and  C_27
REMARK   13  A    between atoms: C_22  and  C_28
REMARK                            x       y       z     vdW  Elec       q    Type
REMARK                         _______ _______ _______ _____ _____    ______ ____
ROOT
ATOM      1  N   UNL     1       0.712   2.540  -1.142  0.00  0.00    +0.000 N 
ATOM      2  N   UNL     1       2.317  -1.419   1.079  0.00  0.00    +0.000 N 
ATOM      3  N   UNL     1      -0.224   0.386  -1.739  0.00  0.00    +0.000 NA
ATOM      4  N   UNL     1       0.465  -1.420  -0.369  0.00  0.00    +0.000 NA
ATOM      5  C   UNL     1       1.540   0.688  -0.078  0.00  0.00    +0.000 A 
ATOM      6  C   UNL     1       0.631   1.148  -1.030  0.00  0.00    +0.000 A 
ATOM      7  C   UNL     1       2.352   1.825   0.253  0.00  0.00    +0.000 A 
ATOM      8  C   UNL     1       1.735   2.955  -0.291  0.00  0.00    +0.000 A 
ATOM      9  C   UNL     1       1.461  -0.705   0.233  0.00  0.00    +0.000 A 
ATOM     10  C   UNL     1       3.591   1.891   1.085  0.00  0.00    +0.000 C 
ATOM     11  C   UNL     1       2.067   4.373   0.042  0.00  0.00    +0.000 C 
ATOM     12  C   UNL     1      -0.315  -0.866  -1.308  0.00  0.00    +0.000 A 
ATOM     13  C   UNL     1      -1.490  -1.654  -1.793  0.00  0.00    +0.000 C 
ENDROOT
BRANCH   1  14
ATOM     14  C   UNL     1      -0.155   3.362  -1.963  0.00  0.00    +0.000 A 
ATOM     15  C   UNL     1       0.226   3.721  -3.290  0.00  0.00    +0.000 A 
ATOM     16  C   UNL     1      -1.393   3.852  -1.463  0.00  0.00    +0.000 A 
ATOM     17  C   UNL     1      -0.604   4.571  -4.052  0.00  0.00    +0.000 A 
ATOM     18  C   UNL     1      -2.227   4.624  -2.304  0.00  0.00    +0.000 A 
ATOM     19  C   UNL     1      -1.833   5.009  -3.580  0.00  0.00    +0.000 A 
ATOM     20  C   UNL     1       1.468   3.282  -4.030  0.00  0.00    +0.000 C 
ATOM     21  C   UNL     1      -1.920   3.699  -0.059  0.00  0.00    +0.000 C 
ATOM     22  C   UNL     1      -2.718   5.877  -4.422  0.00  0.00    +0.000 C 
ENDBRANCH   1  14
BRANCH   2  23
ATOM     23  C   UNL     1       2.474  -0.953   2.456  0.00  0.00    +0.000 C 
ATOM     24  C   UNL     1       1.192  -0.938   3.269  0.00  0.00    +0.000 C 
ENDBRANCH   2  23
BRANCH   2  25
ATOM     25  C   UNL     1       2.312  -2.883   0.888  0.00  0.00    +0.000 C 
BRANCH  25  26
ATOM     26  C   UNL     1       3.511  -3.349   0.045  0.00  0.00    +0.000 C 
BRANCH  26  27
ATOM     27  C   UNL     1       3.113  -3.694  -1.389  0.00  0.00    +0.000 C 
ATOM     28  C   UNL     1       3.355  -2.525  -2.332  0.00  0.00    +0.000 C 
ENDBRANCH  26  27
ENDBRANCH  25  26
ENDBRANCH   2  25
TORSDOF 5
ENDMDL
MODEL 2
REMARK VINA RESULT:     0.000      3.933      6.514
REMARK INTER + INTRA:          -1.795
REMARK INTER:                   0.000
REMARK INTRA:                  -1.795
REMARK UNBOUND:                -1.795
REMARK  Name = 177990
REMARK  13 active torsions:
REMARK  status: ('A' for Active; 'I' for Inactive)
REMARK    1  A    between atoms: N_1  and  C_10
REMARK    2  A    between atoms: N_2  and  C_11
REMARK    3  A    between atoms: N_2  and  C_12
REMARK    4  A    between atoms: C_7  and  C_16
REMARK    5  A    between atoms: C_8  and  C_17
REMARK    6  A    between atoms: C_11  and  C_13
REMARK    7  A    between atoms: C_12  and  C_23
REMARK    8  A    between atoms: C_13  and  C_19
REMARK    9  A    between atoms: C_14  and  C_24
REMARK   10  A    between atoms: C_15  and  C_25
REMARK   11  A    between atoms: C_18  and  C_26
REMARK   12  A    between atoms: C_19  and  C_27
REMARK   13  A    between atoms: C_22  and  C_28
REMARK                            x       y       z     vdW  Elec       q    Type
REMARK                         _______ _______ _______ _____ _____    ______ ____
ROOT
ATOM      1  N   UNL     1      -2.592   0.404  -1.939  0.00  0.00    +0.000 N 
ATOM      2  N   UNL     1      -5.857  -1.644   0.948  0.00  0.00    +0.000 N 
ATOM      3  N   UNL     1      -2.007  -1.616  -0.735  0.00  0.00    +0.000 NA
ATOM      4  N   UNL     1      -3.799  -2.651   0.418  0.00  0.00    +0.000 NA
ATOM      5  C   UNL     1      -4.174  -0.506  -0.552  0.00  0.00    +0.000 A 
ATOM      6  C   UNL     1      -2.875  -0.635  -1.045  0.00  0.00    +0.000 A 
ATOM      7  C   UNL     1      -4.626   0.780  -1.006  0.00  0.00    +0.000 A 
ATOM      8  C   UNL     1      -3.711   1.236  -1.958  0.00  0.00    +0.000 A 
ATOM      9  C   UNL     1      -4.637  -1.582   0.266  0.00  0.00    +0.000 A 
ATOM     10  C   UNL     1      -5.870   1.525  -0.644  0.00  0.00    +0.000 C 
ATOM     11  C   UNL     1      -3.927   2.380  -2.895  0.00  0.00    +0.000 C 
ATOM     12  C   UNL     1      -2.551  -2.627  -0.071  0.00  0.00    +0.000 A 
ATOM     13  C   UNL     1      -1.758  -3.894  -0.018  0.00  0.00    +0.000 C 
ENDROOT
BRANCH   1  14
ATOM     14  C   UNL     1      -1.374   0.528  -2.713  0.00  0.00    +0.000 A 
ATOM     15  C   UNL     1      -0.278   1.301  -2.226  0.00  0.00    +0.000 A 
ATOM     16  C   UNL     1      -1.245  -0.094  -3.986  0.00  0.00    +0.000 A 
ATOM     17  C   UNL     1       0.877   1.459  -3.021  0.00  0.00    +0.000 A 
ATOM     18  C   UNL     1      -0.029   0.023  -4.698  0.00  0.00    +0.000 A 
ATOM     19  C   UNL     1       1.020   0.813  -4.242  0.00  0.00    +0.000 A 
ATOM     20  C   UNL     1      -0.184   2.008  -0.894  0.00  0.00    +0.000 C 
ATOM     21  C   UNL     1      -2.319  -0.842  -4.735  0.00  0.00    +0.000 C 
ATOM     22  C   UNL     1       2.272   0.960  -5.051  0.00  0.00    +0.000 C 
ENDBRANCH   1  14
BRANCH   2  23
ATOM     23  C   UNL     1      -7.088  -1.484   0.176  0.00  0.00    +0.000 C 
ATOM     24  C   UNL     1      -7.297  -2.529  -0.906  0.00  0.00    +0.000 C 
ENDBRANCH   2  23
BRANCH   2  25
ATOM     25  C   UNL     1      -5.909  -2.619   2.055  0.00  0.00    +0.000 C 
BRANCH  25  26
ATOM     26  C   UNL     1      -5.715  -1.938   3.421  0.00  0.00    +0.000 C 
BRANCH  26  27
ATOM     27  C   UNL     1      -4.314  -2.164   3.988  0.00  0.00    +0.000 C 
ATOM     28  C   UNL     1      -3.387  -1.002   3.665  0.00  0.00    +0.000 C 
ENDBRANCH  26  27
ENDBRANCH  25  26
ENDBRANCH   2  25
TORSDOF 5
ENDMDL
MODEL 3
REMARK VINA RESULT:     0.000      3.429      6.034
REMARK INTER + INTRA:          -1.795
REMARK INTER:                   0.000
REMARK INTRA:                  -1.795
REMARK UNBOUND:                -1.795
REMARK  Name = 177990
REMARK  13 active torsions:
REMARK  status: ('A' for Active; 'I' for Inactive)
REMARK    1  A    between atoms: N_1  and  C_10
REMARK    2  A    between atoms: N_2  and  C_11
REMARK    3  A    between atoms: N_2  and  C_12
REMARK    4  A    between atoms: C_7  and  C_16
REMARK    5  A    between atoms: C_8  and  C_17
REMARK    6  A    between atoms: C_11  and  C_13
REMARK    7  A    between atoms: C_12  and  C_23
REMARK    8  A    between atoms: C_13  and  C_19
REMARK    9  A    between atoms: C_14  and  C_24
REMARK   10  A    between atoms: C_15  and  C_25
REMARK   11  A    between atoms: C_18  and  C_26
REMARK   12  A    between atoms: C_19  and  C_27
REMARK   13  A    between atoms: C_22  and  C_28
REMARK                            x       y       z     vdW  Elec       q    Type
REMARK                         _______ _______ _______ _____ _____    ______ ____
ROOT
ATOM      1  N   UNL     1       2.967  -0.525   1.272  0.00  0.00    +0.000 N 
ATOM      2  N   UNL     1      -0.015  -4.305   1.279  0.00  0.00    +0.000 N 
ATOM      3  N   UNL     1       0.942  -0.432   2.598  0.00  0.00    +0.000 NA
ATOM      4  N   UNL     1      -0.272  -2.463   2.718  0.00  0.00    +0.000 NA
ATOM      5  C   UNL     1       1.569  -2.339   1.208  0.00  0.00    +0.000 A 
ATOM      6  C   UNL     1       1.765  -1.065   1.741  0.00  0.00    +0.000 A 
ATOM      7  C   UNL     1       2.591  -2.495   0.212  0.00  0.00    +0.000 A 
ATOM      8  C   UNL     1       3.504  -1.451   0.378  0.00  0.00    +0.000 A 
ATOM      9  C   UNL     1       0.444  -3.058   1.717  0.00  0.00    +0.000 A 
ATOM     10  C   UNL     1       2.769  -3.584  -0.797  0.00  0.00    +0.000 C 
ATOM     11  C   UNL     1       4.862  -1.374  -0.241  0.00  0.00    +0.000 C 
ATOM     12  C   UNL     1      -0.007  -1.208   3.107  0.00  0.00    +0.000 A 
ATOM     13  C   UNL     1      -0.713  -0.690   4.319  0.00  0.00    +0.000 C 
ENDROOT
BRANCH   1  14
ATOM     14  C   UNL     1       3.535   0.739   1.696  0.00  0.00    +0.000 A 
ATOM     15  C   UNL     1       3.275   1.936   0.964  0.00  0.00    +0.000 A 
ATOM     16  C   UNL     1       4.384   0.819   2.835  0.00  0.00    +0.000 A 
ATOM     17  C   UNL     1       3.885   3.146   1.358  0.00  0.00    +0.000 A 
ATOM     18  C   UNL     1       4.893   2.075   3.238  0.00  0.00    +0.000 A 
ATOM     19  C   UNL     1       4.674   3.230   2.497  0.00  0.00    +0.000 A 
ATOM     20  C   UNL     1       2.379   2.087  -0.242  0.00  0.00    +0.000 C 
ATOM     21  C   UNL     1       4.885  -0.336   3.666  0.00  0.00    +0.000 C 
ATOM     22  C   UNL     1       5.278   4.534   2.922  0.00  0.00    +0.000 C 
ENDBRANCH   1  14
BRANCH   2  23
ATOM     23  C   UNL     1       0.920  -5.430   1.298  0.00  0.00    +0.000 C 
ATOM     24  C   UNL     1       1.465  -5.776   2.671  0.00  0.00    +0.000 C 
ENDBRANCH   2  23
BRANCH   2  25
ATOM     25  C   UNL     1      -1.413  -4.620   1.632  0.00  0.00    +0.000 C 
BRANCH  25  26
ATOM     26  C   UNL     1      -2.365  -4.376   0.449  0.00  0.00    +0.000 C 
BRANCH  26  27
ATOM     27  C   UNL     1      -3.173  -3.089   0.609  0.00  0.00    +0.000 C 
ATOM     28  C   UNL     1      -2.521  -1.927  -0.124  0.00  0.00    +0.000 C 
ENDBRANCH  26  27
ENDBRANCH  25  26
ENDBRANCH   2  25
TORSDOF 5
ENDMDL
MODEL 4
REMARK VINA RESULT:     0.000      3.526      7.114
REMARK INTER + INTRA:          -1.794
REMARK INTER:                   0.000
REMARK INTRA:                  -1.794
REMARK UNBOUND:                -1.795
REMARK  Name = 177990
REMARK  13 active torsions:
REMARK  status: ('A' for Active; 'I' for Inactive)
REMARK    1  A    between atoms: N_1  and  C_10
REMARK    2  A    between atoms: N_2  and  C_11
REMARK    3  A    between atoms: N_2  and  C_12
REMARK    4  A    between atoms: C_7  and  C_16
REMARK    5  A    between atoms: C_8  and  C_17
REMARK    6  A    between atoms: C_11  and  C_13
REMARK    7  A    between atoms: C_12  and  C_23
REMARK    8  A    between atoms: C_13  and  C_19
REMARK    9  A    between atoms: C_14  and  C_24
REMARK   10  A    between atoms: C_15  and  C_25
REMARK   11  A    between atoms: C_18  and  C_26
REMARK   12  A    between atoms: C_19  and  C_27
REMARK   13  A    between atoms: C_22  and  C_28
REMARK                            x       y       z     vdW  Elec       q    Type
REMARK                         _______ _______ _______ _____ _____    ______ ____
ROOT
ATOM      1  N   UNL     1      -3.122  -2.939  -0.823  0.00  0.00    +0.000 N 
ATOM      2  N   UNL     1       0.605  -0.418   0.890  0.00  0.00    +0.000 N 
ATOM      3  N   UNL     1      -3.241  -0.519  -0.799  0.00  0.00    +0.000 NA
ATOM      4  N   UNL     1      -1.231   0.577  -0.191  0.00  0.00    +0.000 NA
ATOM      5  C   UNL     1      -1.333  -1.793   0.037  0.00  0.00    +0.000 A 
ATOM      6  C   UNL     1      -2.600  -1.673  -0.535  0.00  0.00    +0.000 A 
ATOM      7  C   UNL     1      -1.166  -3.196   0.298  0.00  0.00    +0.000 A 
ATOM      8  C   UNL     1      -2.193  -3.873  -0.364  0.00  0.00    +0.000 A 
ATOM      9  C   UNL     1      -0.631  -0.568   0.252  0.00  0.00    +0.000 A 
ATOM     10  C   UNL     1      -0.082  -3.893   1.055  0.00  0.00    +0.000 C 
ATOM     11  C   UNL     1      -2.250  -5.346  -0.607  0.00  0.00    +0.000 C 
ATOM     12  C   UNL     1      -2.478   0.560  -0.682  0.00  0.00    +0.000 A 
ATOM     13  C   UNL     1      -2.999   1.816  -1.305  0.00  0.00    +0.000 C 
ENDROOT
BRANCH   1  14
ATOM     14  C   UNL     1      -4.372  -3.188  -1.512  0.00  0.00    +0.000 A 
ATOM     15  C   UNL     1      -5.579  -3.393  -0.778  0.00  0.00    +0.000 A 
ATOM     16  C   UNL     1      -4.429  -3.258  -2.931  0.00  0.00    +0.000 A 
ATOM     17  C   UNL     1      -6.775  -3.693  -1.464  0.00  0.00    +0.000 A 
ATOM     18  C   UNL     1      -5.673  -3.470  -3.569  0.00  0.00    +0.000 A 
ATOM     19  C   UNL     1      -6.837  -3.714  -2.851  0.00  0.00    +0.000 A 
ATOM     20  C   UNL     1      -5.755  -3.323   0.721  0.00  0.00    +0.000 C 
ATOM     21  C   UNL     1      -3.260  -3.198  -3.882  0.00  0.00    +0.000 C 
ATOM     22  C   UNL     1      -8.127  -3.993  -3.560  0.00  0.00    +0.000 C 
ENDBRANCH   1  14
BRANCH   2  23
ATOM     23  C   UNL     1       1.746  -1.172   0.373  0.00  0.00    +0.000 C 
ATOM     24  C   UNL     1       2.112  -0.857  -1.066  0.00  0.00    +0.000 C 
ENDBRANCH   2  23
BRANCH   2  25
ATOM     25  C   UNL     1       0.898   0.944   1.380  0.00  0.00    +0.000 C 
BRANCH  25  26
ATOM     26  C   UNL     1       0.628   1.074   2.889  0.00  0.00    +0.000 C 
BRANCH  26  27
ATOM     27  C   UNL     1      -0.671   1.822   3.184  0.00  0.00    +0.000 C 
ATOM     28  C   UNL     1      -1.829   0.862   3.411  0.00  0.00    +0.000 C 
ENDBRANCH  26  27
ENDBRANCH  25  26
ENDBRANCH   2  25
TORSDOF 5
ENDMDL
MODEL 5
REMARK VINA RESULT:     0.000      2.968      5.504
REMARK INTER + INTRA:          -1.794
REMARK INTER:                   0.000
REMARK INTRA:                  -1.794
REMARK UNBOUND:                -1.795
REMARK  Name = 177990
REMARK  13 active torsions:
REMARK  status: ('A' for Active; 'I' for Inactive)
REMARK    1  A    between atoms: N_1  and  C_10
REMARK    2  A    between atoms: N_2  and  C_11
REMARK    3  A    between atoms: N_2  and  C_12
REMARK    4  A    between atoms: C_7  and  C_16
REMARK    5  A    between atoms: C_8  and  C_17
REMARK    6  A    between atoms: C_11  and  C_13
REMARK    7  A    between atoms: C_12  and  C_23
REMARK    8  A    between atoms: C_13  and  C_19
REMARK    9  A    between atoms: C_14  and  C_24
REMARK   10  A    between atoms: C_15  and  C_25
REMARK   11  A    between atoms: C_18  and  C_26
REMARK   12  A    between atoms: C_19  and  C_27
REMARK   13  A    between atoms: C_22  and  C_28
REMARK                            x       y       z     vdW  Elec       q    Type
REMARK                         _______ _______ _______ _____ _____    ______ ____
ROOT
ATOM      1  N   UNL     1      -0.075   0.446  -1.721  0.00  0.00    +0.000 N 
ATOM      2  N   UNL     1      -4.337  -0.740   0.178  0.00  0.00    +0.000 N 
ATOM      3  N   UNL     1      -2.103   1.294  -2.742  0.00  0.00    +0.000 NA
ATOM      4  N   UNL     1      -4.092   0.853  -1.533  0.00  0.00    +0.000 NA
ATOM      5  C   UNL     1      -2.075  -0.181  -0.795  0.00  0.00    +0.000 A 
ATOM      6  C   UNL     1      -1.467   0.558  -1.811  0.00  0.00    +0.000 A 
ATOM      7  C   UNL     1      -1.016  -0.939  -0.191  0.00  0.00    +0.000 A 
ATOM      8  C   UNL     1       0.194  -0.430  -0.670  0.00  0.00    +0.000 A 
ATOM      9  C   UNL     1      -3.493  -0.040  -0.690  0.00  0.00    +0.000 A 
ATOM     10  C   UNL     1      -1.098  -2.028   0.830  0.00  0.00    +0.000 C 
ATOM     11  C   UNL     1       1.545  -0.717  -0.102  0.00  0.00    +0.000 C 
ATOM     12  C   UNL     1      -3.397   1.466  -2.502  0.00  0.00    +0.000 A 
ATOM     13  C   UNL     1      -4.078   2.554  -3.268  0.00  0.00    +0.000 C 
ENDROOT
BRANCH   1  14
ATOM     14  C   UNL     1       0.873   1.161  -2.552  0.00  0.00    +0.000 A 
ATOM     15  C   UNL     1       1.389   0.567  -3.743  0.00  0.00    +0.000 A 
ATOM     16  C   UNL     1       1.334   2.458  -2.194  0.00  0.00    +0.000 A 
ATOM     17  C   UNL     1       2.356   1.254  -4.508  0.00  0.00    +0.000 A 
ATOM     18  C   UNL     1       2.234   3.137  -3.047  0.00  0.00    +0.000 A 
ATOM     19  C   UNL     1       2.768   2.539  -4.182  0.00  0.00    +0.000 A 
ATOM     20  C   UNL     1       1.010  -0.773  -4.329  0.00  0.00    +0.000 C 
ATOM     21  C   UNL     1       1.017   3.206  -0.924  0.00  0.00    +0.000 C 
ATOM     22  C   UNL     1       3.765   3.267  -5.030  0.00  0.00    +0.000 C 
ENDBRANCH   1  14
BRANCH   2  23
ATOM     23  C   UNL     1      -4.060  -0.676   1.613  0.00  0.00    +0.000 C 
ATOM     24  C   UNL     1      -4.113   0.720   2.206  0.00  0.00    +0.000 C 
ENDBRANCH   2  23
BRANCH   2  25
ATOM     25  C   UNL     1      -5.763  -0.752  -0.205  0.00  0.00    +0.000 C 
BRANCH  25  26
ATOM     26  C   UNL     1      -6.153  -2.069  -0.897  0.00  0.00    +0.000 C 
BRANCH  26  27
ATOM     27  C   UNL     1      -6.293  -1.910  -2.411  0.00  0.00    +0.000 C 
ATOM     28  C   UNL     1      -5.017  -2.312  -3.134  0.00  0.00    +0.000 C 
ENDBRANCH  26  27
ENDBRANCH  25  26
ENDBRANCH   2  25
TORSDOF 5
ENDMDL
MODEL 6
REMARK VINA RESULT:     0.000      3.131      5.696
REMARK INTER + INTRA:          -1.794
REMARK INTER:                   0.000
REMARK INTRA:                  -1.794
REMARK UNBOUND:                -1.795
REMARK  Name = 177990
REMARK  13 active torsions:
REMARK  status: ('A' for Active; 'I' for Inactive)
REMARK    1  A    between atoms: N_1  and  C_10
REMARK    2  A    between atoms: N_2  and  C_11
REMARK    3  A    between atoms: N_2  and  C_12
REMARK    4  A    between atoms: C_7  and  C_16
REMARK    5  A    between atoms: C_8  and  C_17
REMARK    6  A    between atoms: C_11  and  C_13
REMARK    7  A    between atoms: C_12  and  C_23
REMARK    8  A    between atoms: C_13  and  C_19
REMARK    9  A    between atoms: C_14  and  C_24
REMARK   10  A    between atoms: C_15  and  C_25
REMARK   11  A    between atoms: C_18  and  C_26
REMARK   12  A    between atoms: C_19  and  C_27
REMARK   13  A    between atoms: C_22  and  C_28
REMARK                            x       y       z     vdW  Elec       q    Type
REMARK                         _______ _______ _______ _____ _____    ______ ____
ROOT
ATOM      1  N   UNL     1      -1.735   0.797  -0.879  0.00  0.00    +0.000 N 
ATOM      2  N   UNL     1       1.830   3.412   1.027  0.00  0.00    +0.000 N 
ATOM      3  N   UNL     1      -1.945   1.605   1.396  0.00  0.00    +0.000 NA
ATOM      4  N   UNL     1      -0.245   3.102   2.088  0.00  0.00    +0.000 NA
ATOM      5  C   UNL     1       0.009   2.006  -0.013  0.00  0.00    +0.000 A 
ATOM      6  C   UNL     1      -1.256   1.477   0.246  0.00  0.00    +0.000 A 
ATOM      7  C   UNL     1       0.402   1.447  -1.276  0.00  0.00    +0.000 A 
ATOM      8  C   UNL     1      -0.725   0.844  -1.839  0.00  0.00    +0.000 A 
ATOM      9  C   UNL     1       0.552   2.844   1.009  0.00  0.00    +0.000 A 
ATOM     10  C   UNL     1       1.724   1.519  -1.970  0.00  0.00    +0.000 C 
ATOM     11  C   UNL     1      -0.854   0.393  -3.258  0.00  0.00    +0.000 C 
ATOM     12  C   UNL     1      -1.427   2.489   2.239  0.00  0.00    +0.000 A 
ATOM     13  C   UNL     1      -2.316   2.951   3.350  0.00  0.00    +0.000 C 
ENDROOT
BRANCH   1  14
ATOM     14  C   UNL     1      -3.054   0.210  -0.999  0.00  0.00    +0.000 A 
ATOM     15  C   UNL     1      -3.271  -1.163  -0.678  0.00  0.00    +0.000 A 
ATOM     16  C   UNL     1      -4.161   0.976  -1.460  0.00  0.00    +0.000 A 
ATOM     17  C   UNL     1      -4.551  -1.732  -0.858  0.00  0.00    +0.000 A 
ATOM     18  C   UNL     1      -5.440   0.378  -1.533  0.00  0.00    +0.000 A 
ATOM     19  C   UNL     1      -5.639  -0.971  -1.263  0.00  0.00    +0.000 A 
ATOM     20  C   UNL     1      -2.257  -2.143  -0.136  0.00  0.00    +0.000 C 
ATOM     21  C   UNL     1      -4.123   2.395  -1.969  0.00  0.00    +0.000 C 
ATOM     22  C   UNL     1      -6.998  -1.585  -1.407  0.00  0.00    +0.000 C 
ENDBRANCH   1  14
BRANCH   2  23
ATOM     23  C   UNL     1       2.229   4.252  -0.102  0.00  0.00    +0.000 C 
ATOM     24  C   UNL     1       1.359   5.478  -0.316  0.00  0.00    +0.000 C 
ENDBRANCH   2  23
BRANCH   2  25
ATOM     25  C   UNL     1       2.307   3.846   2.355  0.00  0.00    +0.000 C 
BRANCH  25  26
ATOM     26  C   UNL     1       3.265   2.817   2.978  0.00  0.00    +0.000 C 
BRANCH  26  27
ATOM     27  C   UNL     1       2.596   1.988   4.074  0.00  0.00    +0.000 C 
ATOM     28  C   UNL     1       2.078   0.664   3.534  0.00  0.00    +0.000 C 
ENDBRANCH  26  27
ENDBRANCH  25  26
ENDBRANCH   2  25
TORSDOF 5
ENDMDL
MODEL 7
REMARK VINA RESULT:     0.000      3.341      7.348
REMARK INTER + INTRA:          -1.794
REMARK INTER:                   0.000
REMARK INTRA:                  -1.794
REMARK UNBOUND:                -1.795
REMARK  Name = 177990
REMARK  13 active torsions:
REMARK  status: ('A' for Active; 'I' for Inactive)
REMARK    1  A    between atoms: N_1  and  C_10
REMARK    2  A    between atoms: N_2  and  C_11
REMARK    3  A    between atoms: N_2  and  C_12
REMARK    4  A    between atoms: C_7  and  C_16
REMARK    5  A    between atoms: C_8  and  C_17
REMARK    6  A    between atoms: C_11  and  C_13
REMARK    7  A    between atoms: C_12  and  C_23
REMARK    8  A    between atoms: C_13  and  C_19
REMARK    9  A    between atoms: C_14  and  C_24
REMARK   10  A    between atoms: C_15  and  C_25
REMARK   11  A    between atoms: C_18  and  C_26
REMARK   12  A    between atoms: C_19  and  C_27
REMARK   13  A    between atoms: C_22  and  C_28
REMARK                            x       y       z     vdW  Elec       q    Type
REMARK                         _______ _______ _______ _____ _____    ______ ____
ROOT
ATOM      1  N   UNL     1      -2.985  -0.813  -0.215  0.00  0.00    +0.000 N 
ATOM      2  N   UNL     1      -0.915   3.366  -1.413  0.00  0.00    +0.000 N 
ATOM      3  N   UNL     1      -1.943   0.530   1.512  0.00  0.00    +0.000 NA
ATOM      4  N   UNL     1      -1.220   2.675   0.813  0.00  0.00    +0.000 NA
ATOM      5  C   UNL     1      -1.985   1.148  -0.850  0.00  0.00    +0.000 A 
ATOM      6  C   UNL     1      -2.273   0.308   0.226  0.00  0.00    +0.000 A 
ATOM      7  C   UNL     1      -2.355   0.406  -2.022  0.00  0.00    +0.000 A 
ATOM      8  C   UNL     1      -3.089  -0.706  -1.601  0.00  0.00    +0.000 A 
ATOM      9  C   UNL     1      -1.380   2.399  -0.515  0.00  0.00    +0.000 A 
ATOM     10  C   UNL     1      -2.115   0.730  -3.461  0.00  0.00    +0.000 C 
ATOM     11  C   UNL     1      -3.911  -1.591  -2.481  0.00  0.00    +0.000 C 
ATOM     12  C   UNL     1      -1.495   1.756   1.750  0.00  0.00    +0.000 A 
ATOM     13  C   UNL     1      -1.461   2.188   3.181  0.00  0.00    +0.000 C 
ENDROOT
BRANCH   1  14
ATOM     14  C   UNL     1      -3.535  -1.842   0.645  0.00  0.00    +0.000 A 
ATOM     15  C   UNL     1      -2.792  -3.028   0.925  0.00  0.00    +0.000 A 
ATOM     16  C   UNL     1      -4.832  -1.711   1.213  0.00  0.00    +0.000 A 
ATOM     17  C   UNL     1      -3.368  -4.045   1.716  0.00  0.00    +0.000 A 
ATOM     18  C   UNL     1      -5.321  -2.721   2.073  0.00  0.00    +0.000 A 
ATOM     19  C   UNL     1      -4.615  -3.895   2.308  0.00  0.00    +0.000 A 
ATOM     20  C   UNL     1      -1.391  -3.355   0.464  0.00  0.00    +0.000 C 
ATOM     21  C   UNL     1      -5.824  -0.607   0.945  0.00  0.00    +0.000 C 
ATOM     22  C   UNL     1      -5.190  -4.969   3.179  0.00  0.00    +0.000 C 
ENDBRANCH   1  14
BRANCH   2  23
ATOM     23  C   UNL     1      -1.852   3.897  -2.403  0.00  0.00    +0.000 C 
ATOM     24  C   UNL     1      -3.065   4.594  -1.815  0.00  0.00    +0.000 C 
ENDBRANCH   2  23
BRANCH   2  25
ATOM     25  C   UNL     1       0.050   4.332  -0.853  0.00  0.00    +0.000 C 
BRANCH  25  26
ATOM     26  C   UNL     1       1.498   3.966  -1.222  0.00  0.00    +0.000 C 
BRANCH  26  27
ATOM     27  C   UNL     1       2.254   3.338  -0.052  0.00  0.00    +0.000 C 
ATOM     28  C   UNL     1       2.220   1.819  -0.118  0.00  0.00    +0.000 C 
ENDBRANCH  26  27
ENDBRANCH  25  26
ENDBRANCH   2  25
TORSDOF 5
ENDMDL
MODEL 8
REMARK VINA RESULT:     0.000      3.307      7.194
REMARK INTER + INTRA:          -1.794
REMARK INTER:                   0.000
REMARK INTRA:                  -1.794
REMARK UNBOUND:                -1.795
REMARK  Name = 177990
REMARK  13 active torsions:
REMARK  status: ('A' for Active; 'I' for Inactive)
REMARK    1  A    between atoms: N_1  and  C_10
REMARK    2  A    between atoms: N_2  and  C_11
REMARK    3  A    between atoms: N_2  and  C_12
REMARK    4  A    between atoms: C_7  and  C_16
REMARK    5  A    between atoms: C_8  and  C_17
REMARK    6  A    between atoms: C_11  and  C_13
REMARK    7  A    between atoms: C_12  and  C_23
REMARK    8  A    between atoms: C_13  and  C_19
REMARK    9  A    between atoms: C_14  and  C_24
REMARK   10  A    between atoms: C_15  and  C_25
REMARK   11  A    between atoms: C_18  and  C_26
REMARK   12  A    between atoms: C_19  and  C_27
REMARK   13  A    between atoms: C_22  and  C_28
REMARK                            x       y       z     vdW  Elec       q    Type
REMARK                         _______ _______ _______ _____ _____    ______ ____
ROOT
ATOM      1  N   UNL     1      -0.474  -1.629  -0.861  0.00  0.00    +0.000 N 
ATOM      2  N   UNL     1      -4.952  -3.399  -0.826  0.00  0.00    +0.000 N 
ATOM      3  N   UNL     1      -1.895  -1.217   1.059  0.00  0.00    +0.000 NA
ATOM      4  N   UNL     1      -3.958  -2.381   1.047  0.00  0.00    +0.000 NA
ATOM      5  C   UNL     1      -2.607  -2.465  -0.916  0.00  0.00    +0.000 A 
ATOM      6  C   UNL     1      -1.684  -1.736  -0.166  0.00  0.00    +0.000 A 
ATOM      7  C   UNL     1      -2.001  -2.630  -2.207  0.00  0.00    +0.000 A 
ATOM      8  C   UNL     1      -0.662  -2.247  -2.097  0.00  0.00    +0.000 A 
ATOM      9  C   UNL     1      -3.840  -2.766  -0.259  0.00  0.00    +0.000 A 
ATOM     10  C   UNL     1      -2.594  -3.178  -3.465  0.00  0.00    +0.000 C 
ATOM     11  C   UNL     1       0.408  -2.520  -3.103  0.00  0.00    +0.000 C 
ATOM     12  C   UNL     1      -3.011  -1.640   1.638  0.00  0.00    +0.000 A 
ATOM     13  C   UNL     1      -3.126  -1.407   3.111  0.00  0.00    +0.000 C 
ENDROOT
BRANCH   1  14
ATOM     14  C   UNL     1       0.736  -1.025  -0.339  0.00  0.00    +0.000 A 
ATOM     15  C   UNL     1       1.030   0.348  -0.592  0.00  0.00    +0.000 A 
ATOM     16  C   UNL     1       1.672  -1.785   0.414  0.00  0.00    +0.000 A 
ATOM     17  C   UNL     1       2.241   0.904  -0.127  0.00  0.00    +0.000 A 
ATOM     18  C   UNL     1       2.825  -1.153   0.934  0.00  0.00    +0.000 A 
ATOM     19  C   UNL     1       3.130   0.172   0.649  0.00  0.00    +0.000 A 
ATOM     20  C   UNL     1       0.164   1.344  -1.329  0.00  0.00    +0.000 C 
ATOM     21  C   UNL     1       1.617  -3.268   0.684  0.00  0.00    +0.000 C 
ATOM     22  C   UNL     1       4.391   0.793   1.168  0.00  0.00    +0.000 C 
ENDBRANCH   1  14
BRANCH   2  23
ATOM     23  C   UNL     1      -4.763  -4.717  -1.431  0.00  0.00    +0.000 C 
ATOM     24  C   UNL     1      -4.266  -5.786  -0.475  0.00  0.00    +0.000 C 
ENDBRANCH   2  23
BRANCH   2  25
ATOM     25  C   UNL     1      -6.225  -3.193  -0.108  0.00  0.00    +0.000 C 
BRANCH  25  26
ATOM     26  C   UNL     1      -7.087  -2.110  -0.780  0.00  0.00    +0.000 C 
BRANCH  26  27
ATOM     27  C   UNL     1      -7.053  -0.786  -0.018  0.00  0.00    +0.000 C 
ATOM     28  C   UNL     1      -6.018   0.165  -0.598  0.00  0.00    +0.000 C 
ENDBRANCH  26  27
ENDBRANCH  25  26
ENDBRANCH   2  25
TORSDOF 5
ENDMDL
MODEL 9
REMARK VINA RESULT:     0.000      2.447      6.492
REMARK INTER + INTRA:          -1.794
REMARK INTER:                   0.000
REMARK INTRA:                  -1.794
REMARK UNBOUND:                -1.795
REMARK  Name = 177990
REMARK  13 active torsions:
REMARK  status: ('A' for Active; 'I' for Inactive)
REMARK    1  A    between atoms: N_1  and  C_10
REMARK    2  A    between atoms: N_2  and  C_11
REMARK    3  A    between atoms: N_2  and  C_12
REMARK    4  A    between atoms: C_7  and  C_16
REMARK    5  A    between atoms: C_8  and  C_17
REMARK    6  A    between atoms: C_11  and  C_13
REMARK    7  A    between atoms: C_12  and  C_23
REMARK    8  A    between atoms: C_13  and  C_19
REMARK    9  A    between atoms: C_14  and  C_24
REMARK   10  A    between atoms: C_15  and  C_25
REMARK   11  A    between atoms: C_18  and  C_26
REMARK   12  A    between atoms: C_19  and  C_27
REMARK   13  A    between atoms: C_22  and  C_28
REMARK                            x       y       z     vdW  Elec       q    Type
REMARK                         _______ _______ _______ _____ _____    ______ ____
ROOT
ATOM      1  N   UNL     1      -0.476   0.977   0.250  0.00  0.00    +0.000 N 
ATOM      2  N   UNL     1       1.801   4.974  -1.173  0.00  0.00    +0.000 N 
ATOM      3  N   UNL     1       1.708   0.791  -0.784  0.00  0.00    +0.000 NA
ATOM      4  N   UNL     1       2.812   2.851  -1.171  0.00  0.00    +0.000 NA
ATOM      5  C   UNL     1       0.544   2.910  -0.440  0.00  0.00    +0.000 A 
ATOM      6  C   UNL     1       0.659   1.522  -0.360  0.00  0.00    +0.000 A 
ATOM      7  C   UNL     1      -0.807   3.202  -0.051  0.00  0.00    +0.000 A 
ATOM      8  C   UNL     1      -1.348   2.037   0.499  0.00  0.00    +0.000 A 
ATOM      9  C   UNL     1       1.699   3.602  -0.918  0.00  0.00    +0.000 A 
ATOM     10  C   UNL     1      -1.548   4.498  -0.111  0.00  0.00    +0.000 C 
ATOM     11  C   UNL     1      -2.614   1.952   1.289  0.00  0.00    +0.000 C 
ATOM     12  C   UNL     1       2.775   1.513  -1.100  0.00  0.00    +0.000 A 
ATOM     13  C   UNL     1       4.069   0.772  -1.219  0.00  0.00    +0.000 C 
ENDROOT
BRANCH   1  14
ATOM     14  C   UNL     1      -0.652  -0.422   0.585  0.00  0.00    +0.000 A 
ATOM     15  C   UNL     1      -1.308  -1.309  -0.320  0.00  0.00    +0.000 A 
ATOM     16  C   UNL     1      -0.200  -0.943   1.829  0.00  0.00    +0.000 A 
ATOM     17  C   UNL     1      -1.522  -2.654   0.049  0.00  0.00    +0.000 A 
ATOM     18  C   UNL     1      -0.360  -2.320   2.106  0.00  0.00    +0.000 A 
ATOM     19  C   UNL     1      -1.039  -3.172   1.243  0.00  0.00    +0.000 A 
ATOM     20  C   UNL     1      -1.827  -0.981  -1.700  0.00  0.00    +0.000 C 
ATOM     21  C   UNL     1       0.397  -0.157   2.969  0.00  0.00    +0.000 C 
ATOM     22  C   UNL     1      -1.241  -4.613   1.597  0.00  0.00    +0.000 C 
ENDBRANCH   1  14
BRANCH   2  23
ATOM     23  C   UNL     1       1.491   5.904  -0.088  0.00  0.00    +0.000 C 
ATOM     24  C   UNL     1       2.376   5.764   1.137  0.00  0.00    +0.000 C 
ENDBRANCH   2  23
BRANCH   2  25
ATOM     25  C   UNL     1       2.912   5.366  -2.064  0.00  0.00    +0.000 C 
BRANCH  25  26
ATOM     26  C   UNL     1       2.426   5.607  -3.503  0.00  0.00    +0.000 C 
BRANCH  26  27
ATOM     27  C   UNL     1       2.785   4.453  -4.438  0.00  0.00    +0.000 C 
ATOM     28  C   UNL     1       1.631   3.473  -4.583  0.00  0.00    +0.000 C 
ENDBRANCH  26  27
ENDBRANCH  25  26
ENDBRANCH   2  25
TORSDOF 5
ENDMDL
MODEL 10
REMARK VINA RESULT:     0.000      2.994      6.201
REMARK INTER + INTRA:          -1.794
REMARK INTER:                   0.000
REMARK INTRA:                  -1.794
REMARK UNBOUND:                -1.795
REMARK  Name = 177990
REMARK  13 active torsions:
REMARK  status: ('A' for Active; 'I' for Inactive)
REMARK    1  A    between atoms: N_1  and  C_10
REMARK    2  A    between atoms: N_2  and  C_11
REMARK    3  A    between atoms: N_2  and  C_12
REMARK    4  A    between atoms: C_7  and  C_16
REMARK    5  A    between atoms: C_8  and  C_17
REMARK    6  A    between atoms: C_11  and  C_13
REMARK    7  A    between atoms: C_12  and  C_23
REMARK    8  A    between atoms: C_13  and  C_19
REMARK    9  A    between atoms: C_14  and  C_24
REMARK   10  A    between atoms: C_15  and  C_25
REMARK   11  A    between atoms: C_18  and  C_26
REMARK   12  A    between atoms: C_19  and  C_27
REMARK   13  A    between atoms: C_22  and  C_28
REMARK                            x       y       z     vdW  Elec       q    Type
REMARK                         _______ _______ _______ _____ _____    ______ ____
ROOT
ATOM      1  N   UNL     1      -2.592  -1.416  -1.926  0.00  0.00    +0.000 N 
ATOM      2  N   UNL     1       1.899   0.307  -2.109  0.00  0.00    +0.000 N 
ATOM      3  N   UNL     1      -1.980   0.446  -0.501  0.00  0.00    +0.000 NA
ATOM      4  N   UNL     1       0.170   1.353  -0.907  0.00  0.00    +0.000 NA
ATOM      5  C   UNL     1      -0.431  -0.661  -2.030  0.00  0.00    +0.000 A 
ATOM      6  C   UNL     1      -1.675  -0.486  -1.423  0.00  0.00    +0.000 A 
ATOM      7  C   UNL     1      -0.543  -1.881  -2.780  0.00  0.00    +0.000 A 
ATOM      8  C   UNL     1      -1.895  -2.231  -2.817  0.00  0.00    +0.000 A 
ATOM      9  C   UNL     1       0.560   0.316  -1.706  0.00  0.00    +0.000 A 
ATOM     10  C   UNL     1       0.522  -2.654  -3.490  0.00  0.00    +0.000 C 
ATOM     11  C   UNL     1      -2.505  -3.256  -3.717  0.00  0.00    +0.000 C 
ATOM     12  C   UNL     1      -1.047   1.377  -0.347  0.00  0.00    +0.000 A 
ATOM     13  C   UNL     1      -1.461   2.623   0.370  0.00  0.00    +0.000 C 
ENDROOT
BRANCH   1  14
ATOM     14  C   UNL     1      -4.002  -1.458  -1.594  0.00  0.00    +0.000 A 
ATOM     15  C   UNL     1      -4.475  -2.293  -0.537  0.00  0.00    +0.000 A 
ATOM     16  C   UNL     1      -4.954  -0.693  -2.323  0.00  0.00    +0.000 A 
ATOM     17  C   UNL     1      -5.859  -2.366  -0.267  0.00  0.00    +0.000 A 
ATOM     18  C   UNL     1      -6.316  -0.735  -1.949  0.00  0.00    +0.000 A 
ATOM     19  C   UNL     1      -6.780  -1.582  -0.949  0.00  0.00    +0.000 A 
ATOM     20  C   UNL     1      -3.644  -3.152   0.386  0.00  0.00    +0.000 C 
ATOM     21  C   UNL     1      -4.685   0.147  -3.547  0.00  0.00    +0.000 C 
ATOM     22  C   UNL     1      -8.240  -1.644  -0.618  0.00  0.00    +0.000 C 
ENDBRANCH   1  14
BRANCH   2  23
ATOM     23  C   UNL     1       2.190   0.249  -3.541  0.00  0.00    +0.000 C 
ATOM     24  C   UNL     1       1.642   1.413  -4.345  0.00  0.00    +0.000 C 
ENDBRANCH   2  23
BRANCH   2  25
ATOM     25  C   UNL     1       2.804   1.147  -1.299  0.00  0.00    +0.000 C 
BRANCH  25  26
ATOM     26  C   UNL     1       3.592   0.310  -0.277  0.00  0.00    +0.000 C 
BRANCH  26  27
ATOM     27  C   UNL     1       3.045   0.462   1.142  0.00  0.00    +0.000 C 
ATOM     28  C   UNL     1       2.077  -0.658   1.489  0.00  0.00    +0.000 C 
ENDBRANCH  26  27
ENDBRANCH  25  26
ENDBRANCH   2  25
TORSDOF 5
ENDMDL
MODEL 11
REMARK VINA RESULT:     0.000      3.058      4.128
REMARK INTER + INTRA:          -1.794
REMARK INTER:                   0.000
REMARK INTRA:                  -1.794
REMARK UNBOUND:                -1.795
REMARK  Name = 177990
REMARK  13 active torsions:
REMARK  status: ('A' for Active; 'I' for Inactive)
REMARK    1  A    between atoms: N_1  and  C_10
REMARK    2  A    between atoms: N_2  and  C_11
REMARK    3  A    between atoms: N_2  and  C_12
REMARK    4  A    between atoms: C_7  and  C_16
REMARK    5  A    between atoms: C_8  and  C_17
REMARK    6  A    between atoms: C_11  and  C_13
REMARK    7  A    between atoms: C_12  and  C_23
REMARK    8  A    between atoms: C_13  and  C_19
REMARK    9  A    between atoms: C_14  and  C_24
REMARK   10  A    between atoms: C_15  and  C_25
REMARK   11  A    between atoms: C_18  and  C_26
REMARK   12  A    between atoms: C_19  and  C_27
REMARK   13  A    between atoms: C_22  and  C_28
REMARK                            x       y       z     vdW  Elec       q    Type
REMARK                         _______ _______ _______ _____ _____    ______ ____
ROOT
ATOM      1  N   UNL     1      -1.435  -0.931  -0.239  0.00  0.00    +0.000 N 
ATOM      2  N   UNL     1       2.392  -3.663   0.795  0.00  0.00    +0.000 N 
ATOM      3  N   UNL     1      -1.192  -3.085  -1.321  0.00  0.00    +0.000 NA
ATOM      4  N   UNL     1       0.585  -4.422  -0.503  0.00  0.00    +0.000 NA
ATOM      5  C   UNL     1       0.425  -2.171   0.265  0.00  0.00    +0.000 A 
ATOM      6  C   UNL     1      -0.750  -2.125  -0.486  0.00  0.00    +0.000 A 
ATOM      7  C   UNL     1       0.563  -0.860   0.835  0.00  0.00    +0.000 A 
ATOM      8  C   UNL     1      -0.644  -0.185   0.635  0.00  0.00    +0.000 A 
ATOM      9  C   UNL     1       1.149  -3.402   0.209  0.00  0.00    +0.000 A 
ATOM     10  C   UNL     1       1.713  -0.274   1.588  0.00  0.00    +0.000 C 
ATOM     11  C   UNL     1      -1.051   1.087   1.304  0.00  0.00    +0.000 C 
ATOM     12  C   UNL     1      -0.529  -4.231  -1.223  0.00  0.00    +0.000 A 
ATOM     13  C   UNL     1      -1.181  -5.431  -1.832  0.00  0.00    +0.000 C 
ENDROOT
BRANCH   1  14
ATOM     14  C   UNL     1      -2.740  -0.593  -0.771  0.00  0.00    +0.000 A 
ATOM     15  C   UNL     1      -2.859   0.157  -1.980  0.00  0.00    +0.000 A 
ATOM     16  C   UNL     1      -3.932  -0.975  -0.096  0.00  0.00    +0.000 A 
ATOM     17  C   UNL     1      -4.137   0.527  -2.451  0.00  0.00    +0.000 A 
ATOM     18  C   UNL     1      -5.186  -0.655  -0.663  0.00  0.00    +0.000 A 
ATOM     19  C   UNL     1      -5.300   0.113  -1.816  0.00  0.00    +0.000 A 
ATOM     20  C   UNL     1      -1.736   0.627  -2.874  0.00  0.00    +0.000 C 
ATOM     21  C   UNL     1      -4.026  -1.652   1.248  0.00  0.00    +0.000 C 
ATOM     22  C   UNL     1      -6.647   0.482  -2.357  0.00  0.00    +0.000 C 
ENDBRANCH   1  14
BRANCH   2  23
ATOM     23  C   UNL     1       2.535  -3.455   2.236  0.00  0.00    +0.000 C 
ATOM     24  C   UNL     1       1.616  -4.306   3.092  0.00  0.00    +0.000 C 
ENDBRANCH   2  23
BRANCH   2  25
ATOM     25  C   UNL     1       3.122  -4.817   0.233  0.00  0.00    +0.000 C 
BRANCH  25  26
ATOM     26  C   UNL     1       4.207  -4.372  -0.762  0.00  0.00    +0.000 C 
BRANCH  26  27
ATOM     27  C   UNL     1       3.793  -4.601  -2.214  0.00  0.00    +0.000 C 
ATOM     28  C   UNL     1       3.201  -3.344  -2.831  0.00  0.00    +0.000 C 
ENDBRANCH  26  27
ENDBRANCH  25  26
ENDBRANCH   2  25
TORSDOF 5
ENDMDL
MODEL 12
REMARK VINA RESULT:     0.001      4.177      6.798
REMARK INTER + INTRA:          -1.794
REMARK INTER:                   0.000
REMARK INTRA:                  -1.794
REMARK UNBOUND:                -1.795
REMARK  Name = 177990
REMARK  13 active torsions:
REMARK  status: ('A' for Active; 'I' for Inactive)
REMARK    1  A    between atoms: N_1  and  C_10
REMARK    2  A    between atoms: N_2  and  C_11
REMARK    3  A    between atoms: N_2  and  C_12
REMARK    4  A    between atoms: C_7  and  C_16
REMARK    5  A    between atoms: C_8  and  C_17
REMARK    6  A    between atoms: C_11  and  C_13
REMARK    7  A    between atoms: C_12  and  C_23
REMARK    8  A    between atoms: C_13  and  C_19
REMARK    9  A    between atoms: C_14  and  C_24
REMARK   10  A    between atoms: C_15  and  C_25
REMARK   11  A    between atoms: C_18  and  C_26
REMARK   12  A    between atoms: C_19  and  C_27
REMARK   13  A    between atoms: C_22  and  C_28
REMARK                            x       y       z     vdW  Elec       q    Type
REMARK                         _______ _______ _______ _____ _____    ______ ____
ROOT
ATOM      1  N   UNL     1      -3.739   1.489  -0.749  0.00  0.00    +0.000 N 
ATOM      2  N   UNL     1      -3.951  -2.747  -3.027  0.00  0.00    +0.000 N 
ATOM      3  N   UNL     1      -5.246  -0.221   0.071  0.00  0.00    +0.000 NA
ATOM      4  N   UNL     1      -5.032  -2.333  -0.981  0.00  0.00    +0.000 NA
ATOM      5  C   UNL     1      -3.823  -0.493  -1.894  0.00  0.00    +0.000 A 
ATOM      6  C   UNL     1      -4.332   0.224  -0.811  0.00  0.00    +0.000 A 
ATOM      7  C   UNL     1      -3.042   0.452  -2.642  0.00  0.00    +0.000 A 
ATOM      8  C   UNL     1      -2.890   1.593  -1.851  0.00  0.00    +0.000 A 
ATOM      9  C   UNL     1      -4.245  -1.855  -1.990  0.00  0.00    +0.000 A 
ATOM     10  C   UNL     1      -2.404   0.297  -3.985  0.00  0.00    +0.000 C 
ATOM     11  C   UNL     1      -1.923   2.704  -2.102  0.00  0.00    +0.000 C 
ATOM     12  C   UNL     1      -5.493  -1.522  -0.018  0.00  0.00    +0.000 A 
ATOM     13  C   UNL     1      -6.200  -2.148   1.142  0.00  0.00    +0.000 C 
ENDROOT
BRANCH   1  14
ATOM     14  C   UNL     1      -3.956   2.460   0.305  0.00  0.00    +0.000 A 
ATOM     15  C   UNL     1      -4.955   3.471   0.167  0.00  0.00    +0.000 A 
ATOM     16  C   UNL     1      -3.168   2.450   1.489  0.00  0.00    +0.000 A 
ATOM     17  C   UNL     1      -5.112   4.444   1.178  0.00  0.00    +0.000 A 
ATOM     18  C   UNL     1      -3.432   3.393   2.509  0.00  0.00    +0.000 A 
ATOM     19  C   UNL     1      -4.374   4.403   2.353  0.00  0.00    +0.000 A 
ATOM     20  C   UNL     1      -5.924   3.642  -0.979  0.00  0.00    +0.000 C 
ATOM     21  C   UNL     1      -1.988   1.557   1.776  0.00  0.00    +0.000 C 
ATOM     22  C   UNL     1      -4.586   5.421   3.432  0.00  0.00    +0.000 C 
ENDBRANCH   1  14
BRANCH   2  23
ATOM     23  C   UNL     1      -2.546  -2.988  -3.352  0.00  0.00    +0.000 C 
ATOM     24  C   UNL     1      -1.724  -3.569  -2.216  0.00  0.00    +0.000 C 
ENDBRANCH   2  23
BRANCH   2  25
ATOM     25  C   UNL     1      -4.847  -3.916  -3.124  0.00  0.00    +0.000 C 
BRANCH  25  26
ATOM     26  C   UNL     1      -5.912  -3.725  -4.218  0.00  0.00    +0.000 C 
BRANCH  26  27
ATOM     27  C   UNL     1      -7.285  -3.387  -3.639  0.00  0.00    +0.000 C 
ATOM     28  C   UNL     1      -7.530  -1.886  -3.624  0.00  0.00    +0.000 C 
ENDBRANCH  26  27
ENDBRANCH  25  26
ENDBRANCH   2  25
TORSDOF 5
ENDMDL
MODEL 13
REMARK VINA RESULT:     0.001      2.198      4.591
REMARK INTER + INTRA:          -1.794
REMARK INTER:                   0.000
REMARK INTRA:                  -1.794
REMARK UNBOUND:                -1.795
REMARK  Name = 177990
REMARK  13 active torsions:
REMARK  status: ('A' for Active; 'I' for Inactive)
REMARK    1  A    between atoms: N_1  and  C_10
REMARK    2  A    between atoms: N_2  and  C_11
REMARK    3  A    between atoms: N_2  and  C_12
REMARK    4  A    between atoms: C_7  and  C_16
REMARK    5  A    between atoms: C_8  and  C_17
REMARK    6  A    between atoms: C_11  and  C_13
REMARK    7  A    between atoms: C_12  and  C_23
REMARK    8  A    between atoms: C_13  and  C_19
REMARK    9  A    between atoms: C_14  and  C_24
REMARK   10  A    between atoms: C_15  and  C_25
REMARK   11  A    between atoms: C_18  and  C_26
REMARK   12  A    between atoms: C_19  and  C_27
REMARK   13  A    between atoms: C_22  and  C_28
REMARK                            x       y       z     vdW  Elec       q    Type
REMARK                         _______ _______ _______ _____ _____    ______ ____
ROOT
ATOM      1  N   UNL     1      -2.037   1.016  -0.750  0.00  0.00    +0.000 N 
ATOM      2  N   UNL     1       2.422  -0.442   0.333  0.00  0.00    +0.000 N 
ATOM      3  N   UNL     1      -0.234   2.635  -0.731  0.00  0.00    +0.000 NA
ATOM      4  N   UNL     1       1.933   1.718  -0.456  0.00  0.00    +0.000 NA
ATOM      5  C   UNL     1       0.057   0.271  -0.193  0.00  0.00    +0.000 A 
ATOM      6  C   UNL     1      -0.700   1.384  -0.560  0.00  0.00    +0.000 A 
ATOM      7  C   UNL     1      -0.897  -0.774   0.052  0.00  0.00    +0.000 A 
ATOM      8  C   UNL     1      -2.132  -0.339  -0.434  0.00  0.00    +0.000 A 
ATOM      9  C   UNL     1       1.467   0.483  -0.102  0.00  0.00    +0.000 A 
ATOM     10  C   UNL     1      -0.680  -2.133   0.636  0.00  0.00    +0.000 C 
ATOM     11  C   UNL     1      -3.334  -1.199  -0.651  0.00  0.00    +0.000 C 
ATOM     12  C   UNL     1       1.090   2.720  -0.745  0.00  0.00    +0.000 A 
ATOM     13  C   UNL     1       1.671   3.985  -1.290  0.00  0.00    +0.000 C 
ENDROOT
BRANCH   1  14
ATOM     14  C   UNL     1      -3.082   1.896  -1.233  0.00  0.00    +0.000 A 
ATOM     15  C   UNL     1      -3.916   2.605  -0.316  0.00  0.00    +0.000 A 
ATOM     16  C   UNL     1      -3.324   2.058  -2.625  0.00  0.00    +0.000 A 
ATOM     17  C   UNL     1      -4.967   3.411  -0.804  0.00  0.00    +0.000 A 
ATOM     18  C   UNL     1      -4.331   2.951  -3.058  0.00  0.00    +0.000 A 
ATOM     19  C   UNL     1      -5.170   3.605  -2.163  0.00  0.00    +0.000 A 
ATOM     20  C   UNL     1      -3.811   2.611   1.191  0.00  0.00    +0.000 C 
ATOM     21  C   UNL     1      -2.649   1.311  -3.747  0.00  0.00    +0.000 C 
ATOM     22  C   UNL     1      -6.266   4.498  -2.659  0.00  0.00    +0.000 C 
ENDBRANCH   1  14
BRANCH   2  23
ATOM     23  C   UNL     1       2.495  -1.733  -0.350  0.00  0.00    +0.000 C 
ATOM     24  C   UNL     1       2.814  -1.647  -1.831  0.00  0.00    +0.000 C 
ENDBRANCH   2  23
BRANCH   2  25
ATOM     25  C   UNL     1       3.712   0.139   0.758  0.00  0.00    +0.000 C 
BRANCH  25  26
ATOM     26  C   UNL     1       3.805   0.252   2.289  0.00  0.00    +0.000 C 
BRANCH  26  27
ATOM     27  C   UNL     1       3.602   1.685   2.779  0.00  0.00    +0.000 C 
ATOM     28  C   UNL     1       2.160   1.933   3.196  0.00  0.00    +0.000 C 
ENDBRANCH  26  27
ENDBRANCH  25  26
ENDBRANCH   2  25
TORSDOF 5
ENDMDL
MODEL 14
REMARK VINA RESULT:     0.001      3.472      6.942
REMARK INTER + INTRA:          -1.794
REMARK INTER:                   0.000
REMARK INTRA:                  -1.794
REMARK UNBOUND:                -1.795
REMARK  Name = 177990
REMARK  13 active torsions:
REMARK  status: ('A' for Active; 'I' for Inactive)
REMARK    1  A    between atoms: N_1  and  C_10
REMARK    2  A    between atoms: N_2  and  C_11
REMARK    3  A    between atoms: N_2  and  C_12
REMARK    4  A    between atoms: C_7  and  C_16
REMARK    5  A    between atoms: C_8  and  C_17
REMARK    6  A    between atoms: C_11  and  C_13
REMARK    7  A    between atoms: C_12  and  C_23
REMARK    8  A    between atoms: C_13  and  C_19
REMARK    9  A    between atoms: C_14  and  C_24
REMARK   10  A    between atoms: C_15  and  C_25
REMARK   11  A    between atoms: C_18  and  C_26
REMARK   12  A    between atoms: C_19  and  C_27
REMARK   13  A    between atoms: C_22  and  C_28
REMARK                            x       y       z     vdW  Elec       q    Type
REMARK                         _______ _______ _______ _____ _____    ______ ____
ROOT
ATOM      1  N   UNL     1      -0.190  -1.712   0.430  0.00  0.00    +0.000 N 
ATOM      2  N   UNL     1      -4.925  -2.232   1.131  0.00  0.00    +0.000 N 
ATOM      3  N   UNL     1      -1.587   0.261   0.584  0.00  0.00    +0.000 NA
ATOM      4  N   UNL     1      -3.836  -0.149   1.205  0.00  0.00    +0.000 NA
ATOM      5  C   UNL     1      -2.440  -2.022   0.728  0.00  0.00    +0.000 A 
ATOM      6  C   UNL     1      -1.427  -1.075   0.576  0.00  0.00    +0.000 A 
ATOM      7  C   UNL     1      -1.821  -3.289   0.455  0.00  0.00    +0.000 A 
ATOM      8  C   UNL     1      -0.439  -3.084   0.426  0.00  0.00    +0.000 A 
ATOM      9  C   UNL     1      -3.737  -1.500   1.025  0.00  0.00    +0.000 A 
ATOM     10  C   UNL     1      -2.453  -4.635   0.300  0.00  0.00    +0.000 C 
ATOM     11  C   UNL     1       0.600  -4.157   0.461  0.00  0.00    +0.000 C 
ATOM     12  C   UNL     1      -2.789   0.658   0.980  0.00  0.00    +0.000 A 
ATOM     13  C   UNL     1      -2.923   2.097   1.365  0.00  0.00    +0.000 C 
ENDROOT
BRANCH   1  14
ATOM     14  C   UNL     1       1.090  -1.038   0.350  0.00  0.00    +0.000 A 
ATOM     15  C   UNL     1       1.660  -0.707  -0.916  0.00  0.00    +0.000 A 
ATOM     16  C   UNL     1       1.824  -0.710   1.524  0.00  0.00    +0.000 A 
ATOM     17  C   UNL     1       2.935  -0.103  -0.975  0.00  0.00    +0.000 A 
ATOM     18  C   UNL     1       3.054  -0.023   1.408  0.00  0.00    +0.000 A 
ATOM     19  C   UNL     1       3.627   0.259   0.173  0.00  0.00    +0.000 A 
ATOM     20  C   UNL     1       1.041  -0.923  -2.276  0.00  0.00    +0.000 C 
ATOM     21  C   UNL     1       1.466  -1.082   2.941  0.00  0.00    +0.000 C 
ATOM     22  C   UNL     1       4.960   0.936   0.088  0.00  0.00    +0.000 C 
ENDBRANCH   1  14
BRANCH   2  23
ATOM     23  C   UNL     1      -4.972  -3.338   2.085  0.00  0.00    +0.000 C 
ATOM     24  C   UNL     1      -4.737  -2.938   3.530  0.00  0.00    +0.000 C 
ENDBRANCH   2  23
BRANCH   2  25
ATOM     25  C   UNL     1      -6.164  -1.441   0.996  0.00  0.00    +0.000 C 
BRANCH  25  26
ATOM     26  C   UNL     1      -6.764  -1.562  -0.416  0.00  0.00    +0.000 C 
BRANCH  26  27
ATOM     27  C   UNL     1      -6.505  -0.319  -1.266  0.00  0.00    +0.000 C 
ATOM     28  C   UNL     1      -5.278  -0.492  -2.148  0.00  0.00    +0.000 C 
ENDBRANCH  26  27
ENDBRANCH  25  26
ENDBRANCH   2  25
TORSDOF 5
ENDMDL
MODEL 15
REMARK VINA RESULT:     0.001      3.909      7.985
REMARK INTER + INTRA:          -1.794
REMARK INTER:                   0.000
REMARK INTRA:                  -1.794
REMARK UNBOUND:                -1.795
REMARK  Name = 177990
REMARK  13 active torsions:
REMARK  status: ('A' for Active; 'I' for Inactive)
REMARK    1  A    between atoms: N_1  and  C_10
REMARK    2  A    between atoms: N_2  and  C_11
REMARK    3  A    between atoms: N_2  and  C_12
REMARK    4  A    between atoms: C_7  and  C_16
REMARK    5  A    between atoms: C_8  and  C_17
REMARK    6  A    between atoms: C_11  and  C_13
REMARK    7  A    between atoms: C_12  and  C_23
REMARK    8  A    between atoms: C_13  and  C_19
REMARK    9  A    between atoms: C_14  and  C_24
REMARK   10  A    between atoms: C_15  and  C_25
REMARK   11  A    between atoms: C_18  and  C_26
REMARK   12  A    between atoms: C_19  and  C_27
REMARK   13  A    between atoms: C_22  and  C_28
REMARK                            x       y       z     vdW  Elec       q    Type
REMARK                         _______ _______ _______ _____ _____    ______ ____
ROOT
ATOM      1  N   UNL     1      -4.103   0.035  -0.512  0.00  0.00    +0.000 N 
ATOM      2  N   UNL     1      -3.275   4.715   0.259  0.00  0.00    +0.000 N 
ATOM      3  N   UNL     1      -3.111   0.732   1.587  0.00  0.00    +0.000 NA
ATOM      4  N   UNL     1      -3.025   3.075   1.925  0.00  0.00    +0.000 NA
ATOM      5  C   UNL     1      -3.699   2.271  -0.215  0.00  0.00    +0.000 A 
ATOM      6  C   UNL     1      -3.599   1.005   0.362  0.00  0.00    +0.000 A 
ATOM      7  C   UNL     1      -4.088   2.038  -1.578  0.00  0.00    +0.000 A 
ATOM      8  C   UNL     1      -4.467   0.697  -1.684  0.00  0.00    +0.000 A 
ATOM      9  C   UNL     1      -3.346   3.368   0.630  0.00  0.00    +0.000 A 
ATOM     10  C   UNL     1      -4.180   3.006  -2.713  0.00  0.00    +0.000 C 
ATOM     11  C   UNL     1      -5.206   0.089  -2.832  0.00  0.00    +0.000 C 
ATOM     12  C   UNL     1      -2.919   1.805   2.342  0.00  0.00    +0.000 A 
ATOM     13  C   UNL     1      -2.737   1.565   3.807  0.00  0.00    +0.000 C 
ENDROOT
BRANCH   1  14
ATOM     14  C   UNL     1      -4.247  -1.373  -0.200  0.00  0.00    +0.000 A 
ATOM     15  C   UNL     1      -3.218  -2.301  -0.539  0.00  0.00    +0.000 A 
ATOM     16  C   UNL     1      -5.423  -1.871   0.427  0.00  0.00    +0.000 A 
ATOM     17  C   UNL     1      -3.402  -3.677  -0.280  0.00  0.00    +0.000 A 
ATOM     18  C   UNL     1      -5.513  -3.245   0.746  0.00  0.00    +0.000 A 
ATOM     19  C   UNL     1      -4.529  -4.154   0.375  0.00  0.00    +0.000 A 
ATOM     20  C   UNL     1      -1.881  -1.988  -1.167  0.00  0.00    +0.000 C 
ATOM     21  C   UNL     1      -6.670  -1.088   0.750  0.00  0.00    +0.000 C 
ATOM     22  C   UNL     1      -4.686  -5.613   0.676  0.00  0.00    +0.000 C 
ENDBRANCH   1  14
BRANCH   2  23
ATOM     23  C   UNL     1      -4.464   5.335  -0.324  0.00  0.00    +0.000 C 
ATOM     24  C   UNL     1      -5.684   5.336   0.579  0.00  0.00    +0.000 C 
ENDBRANCH   2  23
BRANCH   2  25
ATOM     25  C   UNL     1      -2.473   5.572   1.155  0.00  0.00    +0.000 C 
BRANCH  25  26
ATOM     26  C   UNL     1      -1.066   5.825   0.587  0.00  0.00    +0.000 C 
BRANCH  26  27
ATOM     27  C   UNL     1       0.004   4.992   1.293  0.00  0.00    +0.000 C 
ATOM     28  C   UNL     1       0.305   3.710   0.533  0.00  0.00    +0.000 C 
ENDBRANCH  26  27
ENDBRANCH  25  26
ENDBRANCH   2  25
TORSDOF 5
ENDMDL
MODEL 16
REMARK VINA RESULT:     0.001      2.681      6.831
REMARK INTER + INTRA:          -1.794
REMARK INTER:                   0.000
REMARK INTRA:                  -1.794
REMARK UNBOUND:                -1.795
REMARK  Name = 177990
REMARK  13 active torsions:
REMARK  status: ('A' for Active; 'I' for Inactive)
REMARK    1  A    between atoms: N_1  and  C_10
REMARK    2  A    between atoms: N_2  and  C_11
REMARK    3  A    between atoms: N_2  and  C_12
REMARK    4  A    between atoms: C_7  and  C_16
REMARK    5  A    between atoms: C_8  and  C_17
REMARK    6  A    between atoms: C_11  and  C_13
REMARK    7  A    between atoms: C_12  and  C_23
REMARK    8  A    between atoms: C_13  and  C_19
REMARK    9  A    between atoms: C_14  and  C_24
REMARK   10  A    between atoms: C_15  and  C_25
REMARK   11  A    between atoms: C_18  and  C_26
REMARK   12  A    between atoms: C_19  and  C_27
REMARK   13  A    between atoms: C_22  and  C_28
REMARK                            x       y       z     vdW  Elec       q    Type
REMARK                         _______ _______ _______ _____ _____    ______ ____
ROOT
ATOM      1  N   UNL     1       0.127   2.035   1.260  0.00  0.00    +0.000 N 
ATOM      2  N   UNL     1      -4.005   2.126  -1.210  0.00  0.00    +0.000 N 
ATOM      3  N   UNL     1      -0.585   0.047   0.072  0.00  0.00    +0.000 NA
ATOM      4  N   UNL     1      -2.484   0.336  -1.315  0.00  0.00    +0.000 NA
ATOM      5  C   UNL     1      -1.865   2.126   0.132  0.00  0.00    +0.000 A 
ATOM      6  C   UNL     1      -0.775   1.321   0.464  0.00  0.00    +0.000 A 
ATOM      7  C   UNL     1      -1.720   3.311   0.931  0.00  0.00    +0.000 A 
ATOM      8  C   UNL     1      -0.438   3.290   1.486  0.00  0.00    +0.000 A 
ATOM      9  C   UNL     1      -2.794   1.560  -0.795  0.00  0.00    +0.000 A 
ATOM     10  C   UNL     1      -2.677   4.443   1.123  0.00  0.00    +0.000 C 
ATOM     11  C   UNL     1       0.244   4.445   2.145  0.00  0.00    +0.000 C 
ATOM     12  C   UNL     1      -1.425  -0.357  -0.873  0.00  0.00    +0.000 A 
ATOM     13  C   UNL     1      -1.050  -1.604  -1.608  0.00  0.00    +0.000 C 
ENDROOT
BRANCH   1  14
ATOM     14  C   UNL     1       1.416   1.544   1.705  0.00  0.00    +0.000 A 
ATOM     15  C   UNL     1       1.553   0.906   2.974  0.00  0.00    +0.000 A 
ATOM     16  C   UNL     1       2.581   1.704   0.904  0.00  0.00    +0.000 A 
ATOM     17  C   UNL     1       2.826   0.487   3.415  0.00  0.00    +0.000 A 
ATOM     18  C   UNL     1       3.814   1.183   1.357  0.00  0.00    +0.000 A 
ATOM     19  C   UNL     1       3.953   0.602   2.612  0.00  0.00    +0.000 A 
ATOM     20  C   UNL     1       0.451   0.598   3.960  0.00  0.00    +0.000 C 
ATOM     21  C   UNL     1       2.679   2.456  -0.399  0.00  0.00    +0.000 C 
ATOM     22  C   UNL     1       5.288   0.113   3.083  0.00  0.00    +0.000 C 
ENDBRANCH   1  14
BRANCH   2  23
ATOM     23  C   UNL     1      -3.975   3.462  -1.803  0.00  0.00    +0.000 C 
ATOM     24  C   UNL     1      -3.142   3.575  -3.067  0.00  0.00    +0.000 C 
ENDBRANCH   2  23
BRANCH   2  25
ATOM     25  C   UNL     1      -4.972   1.178  -1.798  0.00  0.00    +0.000 C 
BRANCH  25  26
ATOM     26  C   UNL     1      -6.051   0.765  -0.781  0.00  0.00    +0.000 C 
BRANCH  26  27
ATOM     27  C   UNL     1      -5.818  -0.639  -0.226  0.00  0.00    +0.000 C 
ATOM     28  C   UNL     1      -5.076  -0.598   1.101  0.00  0.00    +0.000 C 
ENDBRANCH  26  27
ENDBRANCH  25  26
ENDBRANCH   2  25
TORSDOF 5
ENDMDL
MODEL 17
REMARK VINA RESULT:     0.001      2.559      6.530
REMARK INTER + INTRA:          -1.794
REMARK INTER:                   0.000
REMARK INTRA:                  -1.794
REMARK UNBOUND:                -1.795
REMARK  Name = 177990
REMARK  13 active torsions:
REMARK  status: ('A' for Active; 'I' for Inactive)
REMARK    1  A    between atoms: N_1  and  C_10
REMARK    2  A    between atoms: N_2  and  C_11
REMARK    3  A    between atoms: N_2  and  C_12
REMARK    4  A    between atoms: C_7  and  C_16
REMARK    5  A    between atoms: C_8  and  C_17
REMARK    6  A    between atoms: C_11  and  C_13
REMARK    7  A    between atoms: C_12  and  C_23
REMARK    8  A    between atoms: C_13  and  C_19
REMARK    9  A    between atoms: C_14  and  C_24
REMARK   10  A    between atoms: C_15  and  C_25
REMARK   11  A    between atoms: C_18  and  C_26
REMARK   12  A    between atoms: C_19  and  C_27
REMARK   13  A    between atoms: C_22  and  C_28
REMARK                            x       y       z     vdW  Elec       q    Type
REMARK                         _______ _______ _______ _____ _____    ______ ____
ROOT
ATOM      1  N   UNL     1       0.146   0.595  -2.521  0.00  0.00    +0.000 N 
ATOM      2  N   UNL     1      -2.430   3.820  -0.041  0.00  0.00    +0.000 N 
ATOM      3  N   UNL     1      -0.999  -0.104  -0.503  0.00  0.00    +0.000 NA
ATOM      4  N   UNL     1      -2.442   1.519   0.443  0.00  0.00    +0.000 NA
ATOM      5  C   UNL     1      -1.035   2.181  -1.363  0.00  0.00    +0.000 A 
ATOM      6  C   UNL     1      -0.651   0.841  -1.397  0.00  0.00    +0.000 A 
ATOM      7  C   UNL     1      -0.268   2.822  -2.394  0.00  0.00    +0.000 A 
ATOM      8  C   UNL     1       0.319   1.818  -3.168  0.00  0.00    +0.000 A 
ATOM      9  C   UNL     1      -1.967   2.534  -0.339  0.00  0.00    +0.000 A 
ATOM     10  C   UNL     1      -0.135   4.278  -2.705  0.00  0.00    +0.000 C 
ATOM     11  C   UNL     1       0.961   2.011  -4.504  0.00  0.00    +0.000 C 
ATOM     12  C   UNL     1      -1.953   0.276   0.338  0.00  0.00    +0.000 A 
ATOM     13  C   UNL     1      -2.640  -0.812   1.101  0.00  0.00    +0.000 C 
ENDROOT
BRANCH   1  14
ATOM     14  C   UNL     1       0.638  -0.706  -2.925  0.00  0.00    +0.000 A 
ATOM     15  C   UNL     1       1.929  -1.155  -2.515  0.00  0.00    +0.000 A 
ATOM     16  C   UNL     1      -0.137  -1.559  -3.759  0.00  0.00    +0.000 A 
ATOM     17  C   UNL     1       2.415  -2.401  -2.968  0.00  0.00    +0.000 A 
ATOM     18  C   UNL     1       0.362  -2.835  -4.106  0.00  0.00    +0.000 A 
ATOM     19  C   UNL     1       1.638  -3.252  -3.742  0.00  0.00    +0.000 A 
ATOM     20  C   UNL     1       2.895  -0.436  -1.604  0.00  0.00    +0.000 C 
ATOM     21  C   UNL     1      -1.459  -1.228  -4.403  0.00  0.00    +0.000 C 
ATOM     22  C   UNL     1       2.157  -4.588  -4.177  0.00  0.00    +0.000 C 
ENDBRANCH   1  14
BRANCH   2  23
ATOM     23  C   UNL     1      -3.062   4.591  -1.110  0.00  0.00    +0.000 C 
ATOM     24  C   UNL     1      -4.308   3.954  -1.698  0.00  0.00    +0.000 C 
ENDBRANCH   2  23
BRANCH   2  25
ATOM     25  C   UNL     1      -3.013   3.982   1.305  0.00  0.00    +0.000 C 
BRANCH  25  26
ATOM     26  C   UNL     1      -2.013   4.621   2.284  0.00  0.00    +0.000 C 
BRANCH  26  27
ATOM     27  C   UNL     1      -1.408   3.599   3.246  0.00  0.00    +0.000 C 
ATOM     28  C   UNL     1      -0.065   3.091   2.747  0.00  0.00    +0.000 C 
ENDBRANCH  26  27
ENDBRANCH  25  26
ENDBRANCH   2  25
TORSDOF 5
ENDMDL
MODEL 18
REMARK VINA RESULT:     0.001      2.640      6.675
REMARK INTER + INTRA:          -1.793
REMARK INTER:                   0.000
REMARK INTRA:                  -1.793
REMARK UNBOUND:                -1.795
REMARK  Name = 177990
REMARK  13 active torsions:
REMARK  status: ('A' for Active; 'I' for Inactive)
REMARK    1  A    between atoms: N_1  and  C_10
REMARK    2  A    between atoms: N_2  and  C_11
REMARK    3  A    between atoms: N_2  and  C_12
REMARK    4  A    between atoms: C_7  and  C_16
REMARK    5  A    between atoms: C_8  and  C_17
REMARK    6  A    between atoms: C_11  and  C_13
REMARK    7  A    between atoms: C_12  and  C_23
REMARK    8  A    between atoms: C_13  and  C_19
REMARK    9  A    between atoms: C_14  and  C_24
REMARK   10  A    between atoms: C_15  and  C_25
REMARK   11  A    between atoms: C_18  and  C_26
REMARK   12  A    between atoms: C_19  and  C_27
REMARK   13  A    between atoms: C_22  and  C_28
REMARK                            x       y       z     vdW  Elec       q    Type
REMARK                         _______ _______ _______ _____ _____    ______ ____
ROOT
ATOM      1  N   UNL     1       0.403  -0.384  -1.832  0.00  0.00    +0.000 N 
ATOM      2  N   UNL     1      -3.395   2.217  -0.421  0.00  0.00    +0.000 N 
ATOM      3  N   UNL     1      -1.822  -1.094  -2.475  0.00  0.00    +0.000 NA
ATOM      4  N   UNL     1      -3.554   0.433  -1.944  0.00  0.00    +0.000 NA
ATOM      5  C   UNL     1      -1.368   0.873  -1.102  0.00  0.00    +0.000 A 
ATOM      6  C   UNL     1      -0.990  -0.252  -1.834  0.00  0.00    +0.000 A 
ATOM      7  C   UNL     1      -0.168   1.326  -0.455  0.00  0.00    +0.000 A 
ATOM      8  C   UNL     1       0.905   0.641  -1.030  0.00  0.00    +0.000 A 
ATOM      9  C   UNL     1      -2.758   1.200  -1.141  0.00  0.00    +0.000 A 
ATOM     10  C   UNL     1       0.001   2.384   0.588  0.00  0.00    +0.000 C 
ATOM     11  C   UNL     1       2.348   0.993  -0.872  0.00  0.00    +0.000 C 
ATOM     12  C   UNL     1      -3.072  -0.655  -2.560  0.00  0.00    +0.000 A 
ATOM     13  C   UNL     1      -3.952  -1.341  -3.557  0.00  0.00    +0.000 C 
ENDROOT
BRANCH   1  14
ATOM     14  C   UNL     1       1.147  -1.381  -2.575  0.00  0.00    +0.000 A 
ATOM     15  C   UNL     1       1.517  -2.617  -1.964  0.00  0.00    +0.000 A 
ATOM     16  C   UNL     1       1.550  -1.149  -3.919  0.00  0.00    +0.000 A 
ATOM     17  C   UNL     1       2.292  -3.551  -2.685  0.00  0.00    +0.000 A 
ATOM     18  C   UNL     1       2.246  -2.158  -4.622  0.00  0.00    +0.000 A 
ATOM     19  C   UNL     1       2.643  -3.342  -4.012  0.00  0.00    +0.000 A 
ATOM     20  C   UNL     1       1.163  -3.086  -0.573  0.00  0.00    +0.000 C 
ATOM     21  C   UNL     1       1.375   0.128  -4.702  0.00  0.00    +0.000 C 
ATOM     22  C   UNL     1       3.431  -4.365  -4.771  0.00  0.00    +0.000 C 
ENDBRANCH   1  14
BRANCH   2  23
ATOM     23  C   UNL     1      -2.901   3.585  -0.574  0.00  0.00    +0.000 C 
ATOM     24  C   UNL     1      -2.973   4.128  -1.990  0.00  0.00    +0.000 C 
ENDBRANCH   2  23
BRANCH   2  25
ATOM     25  C   UNL     1      -4.857   2.069  -0.284  0.00  0.00    +0.000 C 
BRANCH  25  26
ATOM     26  C   UNL     1      -5.243   1.494   1.090  0.00  0.00    +0.000 C 
BRANCH  26  27
ATOM     27  C   UNL     1      -5.634   0.019   1.013  0.00  0.00    +0.000 C 
ATOM     28  C   UNL     1      -4.460  -0.887   1.352  0.00  0.00    +0.000 C 
ENDBRANCH  26  27
ENDBRANCH  25  26
ENDBRANCH   2  25
TORSDOF 5
ENDMDL
MODEL 19
REMARK VINA RESULT:     0.001      2.719      7.041
REMARK INTER + INTRA:          -1.793
REMARK INTER:                   0.000
REMARK INTRA:                  -1.793
REMARK UNBOUND:                -1.795
REMARK  Name = 177990
REMARK  13 active torsions:
REMARK  status: ('A' for Active; 'I' for Inactive)
REMARK    1  A    between atoms: N_1  and  C_10
REMARK    2  A    between atoms: N_2  and  C_11
REMARK    3  A    between atoms: N_2  and  C_12
REMARK    4  A    between atoms: C_7  and  C_16
REMARK    5  A    between atoms: C_8  and  C_17
REMARK    6  A    between atoms: C_11  and  C_13
REMARK    7  A    between atoms: C_12  and  C_23
REMARK    8  A    between atoms: C_13  and  C_19
REMARK    9  A    between atoms: C_14  and  C_24
REMARK   10  A    between atoms: C_15  and  C_25
REMARK   11  A    between atoms: C_18  and  C_26
REMARK   12  A    between atoms: C_19  and  C_27
REMARK   13  A    between atoms: C_22  and  C_28
REMARK                            x       y       z     vdW  Elec       q    Type
REMARK                         _______ _______ _______ _____ _____    ______ ____
ROOT
ATOM      1  N   UNL     1      -0.005   2.616  -0.699  0.00  0.00    +0.000 N 
ATOM      2  N   UNL     1      -4.565   4.090  -0.240  0.00  0.00    +0.000 N 
ATOM      3  N   UNL     1      -1.628   1.141   0.331  0.00  0.00    +0.000 NA
ATOM      4  N   UNL     1      -3.871   1.894   0.231  0.00  0.00    +0.000 NA
ATOM      5  C   UNL     1      -2.152   3.385  -0.475  0.00  0.00    +0.000 A 
ATOM      6  C   UNL     1      -1.291   2.314  -0.238  0.00  0.00    +0.000 A 
ATOM      7  C   UNL     1      -1.307   4.463  -0.909  0.00  0.00    +0.000 A 
ATOM      8  C   UNL     1      -0.044   3.927  -1.175  0.00  0.00    +0.000 A 
ATOM      9  C   UNL     1      -3.529   3.152  -0.177  0.00  0.00    +0.000 A 
ATOM     10  C   UNL     1      -1.650   5.899  -1.139  0.00  0.00    +0.000 C 
ATOM     11  C   UNL     1       1.056   4.616  -1.914  0.00  0.00    +0.000 C 
ATOM     12  C   UNL     1      -2.936   0.964   0.467  0.00  0.00    +0.000 A 
ATOM     13  C   UNL     1      -3.394  -0.434   0.740  0.00  0.00    +0.000 C 
ENDROOT
BRANCH   1  14
ATOM     14  C   UNL     1       1.116   1.697  -0.706  0.00  0.00    +0.000 A 
ATOM     15  C   UNL     1       2.039   1.668   0.381  0.00  0.00    +0.000 A 
ATOM     16  C   UNL     1       1.340   0.819  -1.803  0.00  0.00    +0.000 A 
ATOM     17  C   UNL     1       3.157   0.808   0.329  0.00  0.00    +0.000 A 
ATOM     18  C   UNL     1       2.425  -0.086  -1.759  0.00  0.00    +0.000 A 
ATOM     19  C   UNL     1       3.348  -0.081  -0.720  0.00  0.00    +0.000 A 
ATOM     20  C   UNL     1       1.971   2.478   1.655  0.00  0.00    +0.000 C 
ATOM     21  C   UNL     1       0.566   0.780  -3.096  0.00  0.00    +0.000 C 
ATOM     22  C   UNL     1       4.519  -1.015  -0.735  0.00  0.00    +0.000 C 
ENDBRANCH   1  14
BRANCH   2  23
ATOM     23  C   UNL     1      -4.788   4.789  -1.505  0.00  0.00    +0.000 C 
ATOM     24  C   UNL     1      -5.132   3.885  -2.675  0.00  0.00    +0.000 C 
ENDBRANCH   2  23
BRANCH   2  25
ATOM     25  C   UNL     1      -5.777   3.742   0.529  0.00  0.00    +0.000 C 
BRANCH  25  26
ATOM     26  C   UNL     1      -5.822   4.476   1.880  0.00  0.00    +0.000 C 
BRANCH  26  27
ATOM     27  C   UNL     1      -5.460   3.562   3.050  0.00  0.00    +0.000 C 
ATOM     28  C   UNL     1      -3.991   3.690   3.423  0.00  0.00    +0.000 C 
ENDBRANCH  26  27
ENDBRANCH  25  26
ENDBRANCH   2  25
TORSDOF 5
ENDMDL
MODEL 20
REMARK VINA RESULT:     0.001      3.476      6.784
REMARK INTER + INTRA:          -1.793
REMARK INTER:                   0.000
REMARK INTRA:                  -1.793
REMARK UNBOUND:                -1.795
REMARK  Name = 177990
REMARK  13 active torsions:
REMARK  status: ('A' for Active; 'I' for Inactive)
REMARK    1  A    between atoms: N_1  and  C_10
REMARK    2  A    between atoms: N_2  and  C_11
REMARK    3  A    between atoms: N_2  and  C_12
REMARK    4  A    between atoms: C_7  and  C_16
REMARK    5  A    between atoms: C_8  and  C_17
REMARK    6  A    between atoms: C_11  and  C_13
REMARK    7  A    between atoms: C_12  and  C_23
REMARK    8  A    between atoms: C_13  and  C_19
REMARK    9  A    between atoms: C_14  and  C_24
REMARK   10  A    between atoms: C_15  and  C_25
REMARK   11  A    between atoms: C_18  and  C_26
REMARK   12  A    between atoms: C_19  and  C_27
REMARK   13  A    between atoms: C_22  and  C_28
REMARK                            x       y       z     vdW  Elec       q    Type
REMARK                         _______ _______ _______ _____ _____    ______ ____
ROOT
ATOM      1  N   UNL     1      -3.884   1.393   0.332  0.00  0.00    +0.000 N 
ATOM      2  N   UNL     1      -0.097   3.708  -1.532  0.00  0.00    +0.000 N 
ATOM      3  N   UNL     1      -2.597   0.333  -1.425  0.00  0.00    +0.000 NA
ATOM      4  N   UNL     1      -0.612   1.470  -2.038  0.00  0.00    +0.000 NA
ATOM      5  C   UNL     1      -2.115   2.557  -0.541  0.00  0.00    +0.000 A 
ATOM      6  C   UNL     1      -2.846   1.371  -0.605  0.00  0.00    +0.000 A 
ATOM      7  C   UNL     1      -2.867   3.421   0.325  0.00  0.00    +0.000 A 
ATOM      8  C   UNL     1      -3.844   2.643   0.950  0.00  0.00    +0.000 A 
ATOM      9  C   UNL     1      -0.939   2.605  -1.352  0.00  0.00    +0.000 A 
ATOM     10  C   UNL     1      -2.660   4.871   0.625  0.00  0.00    +0.000 C 
ATOM     11  C   UNL     1      -4.660   3.054   2.133  0.00  0.00    +0.000 C 
ATOM     12  C   UNL     1      -1.430   0.409  -2.052  0.00  0.00    +0.000 A 
ATOM     13  C   UNL     1      -0.926  -0.852  -2.678  0.00  0.00    +0.000 C 
ENDROOT
BRANCH   1  14
ATOM     14  C   UNL     1      -4.780   0.288   0.611  0.00  0.00    +0.000 A 
ATOM     15  C   UNL     1      -6.036   0.185  -0.057  0.00  0.00    +0.000 A 
ATOM     16  C   UNL     1      -4.444  -0.707   1.570  0.00  0.00    +0.000 A 
ATOM     17  C   UNL     1      -6.920  -0.866   0.270  0.00  0.00    +0.000 A 
ATOM     18  C   UNL     1      -5.329  -1.788   1.791  0.00  0.00    +0.000 A 
ATOM     19  C   UNL     1      -6.571  -1.862   1.172  0.00  0.00    +0.000 A 
ATOM     20  C   UNL     1      -6.573   1.100  -1.133  0.00  0.00    +0.000 C 
ATOM     21  C   UNL     1      -3.236  -0.716   2.472  0.00  0.00    +0.000 C 
ATOM     22  C   UNL     1      -7.507  -2.991   1.474  0.00  0.00    +0.000 C 
ENDBRANCH   1  14
BRANCH   2  23
ATOM     23  C   UNL     1       0.498   4.324  -0.346  0.00  0.00    +0.000 C 
ATOM     24  C   UNL     1       1.382   3.400   0.471  0.00  0.00    +0.000 C 
ENDBRANCH   2  23
BRANCH   2  25
ATOM     25  C   UNL     1       0.762   3.653  -2.731  0.00  0.00    +0.000 C 
BRANCH  25  26
ATOM     26  C   UNL     1       0.185   4.496  -3.881  0.00  0.00    +0.000 C 
BRANCH  26  27
ATOM     27  C   UNL     1      -0.467   3.635  -4.962  0.00  0.00    +0.000 C 
ATOM     28  C   UNL     1      -1.969   3.519  -4.753  0.00  0.00    +0.000 C 
ENDBRANCH  26  27
ENDBRANCH  25  26
ENDBRANCH   2  25
TORSDOF 5
ENDMDL
