MODEL 1
REMARK VINA RESULT:     0.000      0.000      0.000
REMARK INTER + INTRA:          -2.329
REMARK INTER:                   0.000
REMARK INTRA:                  -2.329
REMARK UNBOUND:                -2.329
REMARK  Name = 23549991
REMARK  8 active torsions:
REMARK  status: ('A' for Active; 'I' for Inactive)
REMARK    1  A    between atoms: S_1  and  C_35
REMARK    2  A    between atoms: S_1  and  C_40
REMARK    3  A    between atoms: N_6  and  C_24
REMARK    4  A    between atoms: N_6  and  C_25
REMARK    5  A    between atoms: N_7  and  C_30
REMARK    6  A    between atoms: C_13  and  C_19
REMARK    7  A    between atoms: C_25  and  C_27
REMARK    8  A    between atoms: C_33  and  C_39
REMARK                            x       y       z     vdW  Elec       q    Type
REMARK                         _______ _______ _______ _____ _____    ______ ____
ROOT
ATOM      1  O   UNL     1       0.890   0.111   3.533  0.00  0.00    +0.000 OA
ATOM      2  N   UNL     1       0.288   1.519   1.747  0.00  0.00    +0.000 N 
ATOM      3  N   UNL     1       2.164   0.066   1.634  0.00  0.00    +0.000 N 
ATOM      4  C   UNL     1       1.116   0.562   2.406  0.00  0.00    +0.000 C 
ATOM      5  H   UNL     1       2.111   0.254   0.646  0.00  0.00    +0.000 HD
ENDROOT
BRANCH   3   6
ATOM      6  C   UNL     1       3.009  -1.031   1.963  0.00  0.00    +0.000 A 
ATOM      7  C   UNL     1       2.723  -2.381   1.719  0.00  0.00    +0.000 A 
ATOM      8  C   UNL     1       3.704  -3.357   1.972  0.00  0.00    +0.000 A 
ATOM      9  C   UNL     1       4.240  -0.698   2.552  0.00  0.00    +0.000 A 
ATOM     10  C   UNL     1       4.968  -2.994   2.449  0.00  0.00    +0.000 A 
ATOM     11  C   UNL     1       5.224  -1.666   2.764  0.00  0.00    +0.000 A 
BRANCH   8  12
ATOM     12  S   UNL     1       3.346  -5.094   1.815  0.00  0.00    +0.000 S 
ATOM     13  O   UNL     1       4.296  -5.792   2.660  0.00  0.00    +0.000 OA
ATOM     14  O   UNL     1       3.270  -5.392   0.392  0.00  0.00    +0.000 OA
ATOM     15  C   UNL     1       1.726  -5.347   2.469  0.00  0.00    +0.000 C 
ENDBRANCH   8  12
ENDBRANCH   3   6
BRANCH   2  21
ATOM     16  C   UNL     1      -3.488   3.016   3.201  0.00  0.00    +0.000 A 
ATOM     17  C   UNL     1      -3.380   1.714   2.700  0.00  0.00    +0.000 A 
ATOM     18  C   UNL     1      -2.311   3.741   3.372  0.00  0.00    +0.000 A 
ATOM     19  C   UNL     1      -2.145   1.199   2.268  0.00  0.00    +0.000 A 
ATOM     20  C   UNL     1      -1.080   3.215   2.957  0.00  0.00    +0.000 A 
ATOM     21  C   UNL     1      -0.973   1.963   2.328  0.00  0.00    +0.000 A 
BRANCH  16  22
ATOM     22  C   UNL     1      -4.833   3.677   3.463  0.00  0.00    +0.000 C 
ATOM     23  C   UNL     1      -6.016   2.711   3.298  0.00  0.00    +0.000 C 
ATOM     24  C   UNL     1      -4.985   4.929   2.575  0.00  0.00    +0.000 C 
ATOM     25  C   UNL     1      -7.355   3.427   3.477  0.00  0.00    +0.000 C 
ATOM     26  C   UNL     1      -6.348   5.598   2.717  0.00  0.00    +0.000 C 
ATOM     27  C   UNL     1      -7.484   4.602   2.514  0.00  0.00    +0.000 C 
ENDBRANCH  16  22
ENDBRANCH   2  21
BRANCH   2  28
ATOM     28  C   UNL     1       0.658   2.148   0.461  0.00  0.00    +0.000 C 
BRANCH  28  29
ATOM     29  C   UNL     1      -0.461   2.338  -0.555  0.00  0.00    +0.000 A 
ATOM     30  C   UNL     1      -0.921   1.210  -1.255  0.00  0.00    +0.000 A 
ATOM     31  C   UNL     1      -1.106   3.564  -0.781  0.00  0.00    +0.000 A 
ATOM     32  C   UNL     1      -2.034   1.290  -2.096  0.00  0.00    +0.000 A 
ATOM     33  C   UNL     1      -2.240   3.641  -1.609  0.00  0.00    +0.000 A 
ATOM     34  C   UNL     1      -2.731   2.495  -2.243  0.00  0.00    +0.000 A 
BRANCH  34  41
ATOM     35  O   UNL     1      -4.162   1.638  -3.876  0.00  0.00    +0.000 OA
ATOM     36  N   UNL     1      -4.987   3.373  -2.592  0.00  0.00    +0.000 N 
ATOM     37  N   UNL     1      -7.039   4.487  -2.933  0.00  0.00    +0.000 NA
ATOM     38  N   UNL     1      -6.806   2.491  -3.960  0.00  0.00    +0.000 NA
ATOM     39  N   UNL     1      -8.076   4.149  -3.719  0.00  0.00    +0.000 N 
ATOM     40  N   UNL     1      -7.998   2.955  -4.311  0.00  0.00    +0.000 NA
ATOM     41  C   UNL     1      -4.036   2.459  -2.977  0.00  0.00    +0.000 C 
ATOM     42  C   UNL     1      -6.238   3.438  -3.151  0.00  0.00    +0.000 A 
ATOM     43  H   UNL     1      -4.775   4.144  -1.984  0.00  0.00    +0.000 HD
ATOM     44  H   UNL     1      -8.866   4.770  -3.876  0.00  0.00    +0.000 HD
ENDBRANCH  34  41
ENDBRANCH  28  29
ENDBRANCH   2  28
TORSDOF 7
ENDMDL
MODEL 2
REMARK VINA RESULT:     0.001      5.507      8.068
REMARK INTER + INTRA:          -2.328
REMARK INTER:                   0.000
REMARK INTRA:                  -2.328
REMARK UNBOUND:                -2.329
REMARK  Name = 23549991
REMARK  8 active torsions:
REMARK  status: ('A' for Active; 'I' for Inactive)
REMARK    1  A    between atoms: S_1  and  C_35
REMARK    2  A    between atoms: S_1  and  C_40
REMARK    3  A    between atoms: N_6  and  C_24
REMARK    4  A    between atoms: N_6  and  C_25
REMARK    5  A    between atoms: N_7  and  C_30
REMARK    6  A    between atoms: C_13  and  C_19
REMARK    7  A    between atoms: C_25  and  C_27
REMARK    8  A    between atoms: C_33  and  C_39
REMARK                            x       y       z     vdW  Elec       q    Type
REMARK                         _______ _______ _______ _____ _____    ______ ____
ROOT
ATOM      1  O   UNL     1      -2.309  -1.864   4.056  0.00  0.00    +0.000 OA
ATOM      2  N   UNL     1      -0.671  -1.825   2.367  0.00  0.00    +0.000 N 
ATOM      3  N   UNL     1      -2.496  -3.345   2.324  0.00  0.00    +0.000 N 
ATOM      4  C   UNL     1      -1.837  -2.332   3.016  0.00  0.00    +0.000 C 
ATOM      5  H   UNL     1      -2.228  -3.469   1.361  0.00  0.00    +0.000 HD
ENDROOT
BRANCH   3   6
ATOM      6  C   UNL     1      -3.777  -3.884   2.634  0.00  0.00    +0.000 A 
ATOM      7  C   UNL     1      -5.006  -3.351   2.222  0.00  0.00    +0.000 A 
ATOM      8  C   UNL     1      -6.194  -4.058   2.485  0.00  0.00    +0.000 A 
ATOM      9  C   UNL     1      -3.774  -5.067   3.392  0.00  0.00    +0.000 A 
ATOM     10  C   UNL     1      -6.161  -5.294   3.139  0.00  0.00    +0.000 A 
ATOM     11  C   UNL     1      -4.952  -5.783   3.616  0.00  0.00    +0.000 A 
BRANCH   8  12
ATOM     12  S   UNL     1      -7.789  -3.361   2.111  0.00  0.00    +0.000 S 
ATOM     13  O   UNL     1      -8.753  -4.061   2.937  0.00  0.00    +0.000 OA
ATOM     14  O   UNL     1      -7.928  -3.356   0.662  0.00  0.00    +0.000 OA
ATOM     15  C   UNL     1      -7.744  -1.671   2.618  0.00  0.00    +0.000 C 
ENDBRANCH   8  12
ENDBRANCH   3   6
BRANCH   2  21
ATOM     16  C   UNL     1       1.523   1.705   3.519  0.00  0.00    +0.000 A 
ATOM     17  C   UNL     1       0.274   1.812   2.900  0.00  0.00    +0.000 A 
ATOM     18  C   UNL     1       1.949   0.435   3.902  0.00  0.00    +0.000 A 
ATOM     19  C   UNL     1      -0.472   0.667   2.563  0.00  0.00    +0.000 A 
ATOM     20  C   UNL     1       1.192  -0.700   3.581  0.00  0.00    +0.000 A 
ATOM     21  C   UNL     1      -0.000  -0.621   2.840  0.00  0.00    +0.000 A 
BRANCH  16  22
ATOM     22  C   UNL     1       2.449   2.900   3.690  0.00  0.00    +0.000 C 
ATOM     23  C   UNL     1       1.778   4.234   3.326  0.00  0.00    +0.000 C 
ATOM     24  C   UNL     1       3.751   2.676   2.893  0.00  0.00    +0.000 C 
ATOM     25  C   UNL     1       2.761   5.402   3.420  0.00  0.00    +0.000 C 
ATOM     26  C   UNL     1       4.695   3.872   2.944  0.00  0.00    +0.000 C 
ATOM     27  C   UNL     1       3.986   5.161   2.544  0.00  0.00    +0.000 C 
ENDBRANCH  16  22
ENDBRANCH   2  21
BRANCH   2  28
ATOM     28  C   UNL     1      -0.047  -2.493   1.204  0.00  0.00    +0.000 C 
BRANCH  28  29
ATOM     29  C   UNL     1       0.478  -1.589   0.097  0.00  0.00    +0.000 A 
ATOM     30  C   UNL     1      -0.453  -0.992  -0.770  0.00  0.00    +0.000 A 
ATOM     31  C   UNL     1       1.834  -1.263  -0.064  0.00  0.00    +0.000 A 
ATOM     32  C   UNL     1      -0.051  -0.046  -1.717  0.00  0.00    +0.000 A 
ATOM     33  C   UNL     1       2.237  -0.295  -1.001  0.00  0.00    +0.000 A 
ATOM     34  C   UNL     1       1.290   0.345  -1.808  0.00  0.00    +0.000 A 
BRANCH  34  41
ATOM     35  O   UNL     1       0.895   1.723  -3.651  0.00  0.00    +0.000 OA
ATOM     36  N   UNL     1       2.719   2.258  -2.338  0.00  0.00    +0.000 N 
ATOM     37  N   UNL     1       4.324   3.919  -2.818  0.00  0.00    +0.000 NA
ATOM     38  N   UNL     1       2.383   4.048  -3.963  0.00  0.00    +0.000 NA
ATOM     39  N   UNL     1       4.294   4.899  -3.739  0.00  0.00    +0.000 N 
ATOM     40  N   UNL     1       3.147   5.038  -4.408  0.00  0.00    +0.000 NA
ATOM     41  C   UNL     1       1.615   1.516  -2.683  0.00  0.00    +0.000 C 
ATOM     42  C   UNL     1       3.120   3.375  -3.026  0.00  0.00    +0.000 A 
ATOM     43  H   UNL     1       3.383   1.944  -1.652  0.00  0.00    +0.000 HD
ATOM     44  H   UNL     1       5.098   5.488  -3.935  0.00  0.00    +0.000 HD
ENDBRANCH  34  41
ENDBRANCH  28  29
ENDBRANCH   2  28
TORSDOF 7
ENDMDL
MODEL 3
REMARK VINA RESULT:     0.001      5.300      9.740
REMARK INTER + INTRA:          -2.328
REMARK INTER:                   0.000
REMARK INTRA:                  -2.328
REMARK UNBOUND:                -2.329
REMARK  Name = 23549991
REMARK  8 active torsions:
REMARK  status: ('A' for Active; 'I' for Inactive)
REMARK    1  A    between atoms: S_1  and  C_35
REMARK    2  A    between atoms: S_1  and  C_40
REMARK    3  A    between atoms: N_6  and  C_24
REMARK    4  A    between atoms: N_6  and  C_25
REMARK    5  A    between atoms: N_7  and  C_30
REMARK    6  A    between atoms: C_13  and  C_19
REMARK    7  A    between atoms: C_25  and  C_27
REMARK    8  A    between atoms: C_33  and  C_39
REMARK                            x       y       z     vdW  Elec       q    Type
REMARK                         _______ _______ _______ _____ _____    ______ ____
ROOT
ATOM      1  O   UNL     1      -3.693  -3.215  -1.791  0.00  0.00    +0.000 OA
ATOM      2  N   UNL     1      -2.995  -1.054  -2.408  0.00  0.00    +0.000 N 
ATOM      3  N   UNL     1      -5.154  -1.477  -1.511  0.00  0.00    +0.000 N 
ATOM      4  C   UNL     1      -3.938  -2.012  -1.930  0.00  0.00    +0.000 C 
ATOM      5  H   UNL     1      -5.174  -0.478  -1.379  0.00  0.00    +0.000 HD
ENDROOT
BRANCH   3   6
ATOM      6  C   UNL     1      -6.184  -2.167  -0.811  0.00  0.00    +0.000 A 
ATOM      7  C   UNL     1      -6.244  -2.348   0.577  0.00  0.00    +0.000 A 
ATOM      8  C   UNL     1      -7.387  -2.934   1.153  0.00  0.00    +0.000 A 
ATOM      9  C   UNL     1      -7.229  -2.669  -1.604  0.00  0.00    +0.000 A 
ATOM     10  C   UNL     1      -8.470  -3.321   0.357  0.00  0.00    +0.000 A 
ATOM     11  C   UNL     1      -8.377  -3.213  -1.024  0.00  0.00    +0.000 A 
BRANCH   8  12
ATOM     12  S   UNL     1      -7.456  -3.317   2.890  0.00  0.00    +0.000 S 
ATOM     13  O   UNL     1      -8.418  -4.392   3.041  0.00  0.00    +0.000 OA
ATOM     14  O   UNL     1      -7.640  -2.061   3.602  0.00  0.00    +0.000 OA
ATOM     15  C   UNL     1      -5.863  -3.926   3.347  0.00  0.00    +0.000 C 
ENDBRANCH   8  12
ENDBRANCH   3   6
BRANCH   2  21
ATOM     16  C   UNL     1       1.165  -1.815  -3.258  0.00  0.00    +0.000 A 
ATOM     17  C   UNL     1       0.703  -1.764  -1.939  0.00  0.00    +0.000 A 
ATOM     18  C   UNL     1       0.215  -1.785  -4.277  0.00  0.00    +0.000 A 
ATOM     19  C   UNL     1      -0.659  -1.564  -1.651  0.00  0.00    +0.000 A 
ATOM     20  C   UNL     1      -1.143  -1.605  -3.983  0.00  0.00    +0.000 A 
ATOM     21  C   UNL     1      -1.608  -1.417  -2.669  0.00  0.00    +0.000 A 
BRANCH  16  22
ATOM     22  C   UNL     1       2.647  -1.803  -3.601  0.00  0.00    +0.000 C 
ATOM     23  C   UNL     1       3.548  -1.729  -2.359  0.00  0.00    +0.000 C 
ATOM     24  C   UNL     1       2.947  -0.664  -4.597  0.00  0.00    +0.000 C 
ATOM     25  C   UNL     1       5.025  -1.625  -2.741  0.00  0.00    +0.000 C 
ATOM     26  C   UNL     1       4.432  -0.532  -4.923  0.00  0.00    +0.000 C 
ATOM     27  C   UNL     1       5.274  -0.431  -3.656  0.00  0.00    +0.000 C 
ENDBRANCH  16  22
ENDBRANCH   2  21
BRANCH   2  28
ATOM     28  C   UNL     1      -3.357   0.350  -2.701  0.00  0.00    +0.000 C 
BRANCH  28  29
ATOM     29  C   UNL     1      -2.357   1.417  -2.277  0.00  0.00    +0.000 A 
ATOM     30  C   UNL     1      -2.253   1.723  -0.909  0.00  0.00    +0.000 A 
ATOM     31  C   UNL     1      -1.485   2.063  -3.168  0.00  0.00    +0.000 A 
ATOM     32  C   UNL     1      -1.262   2.589  -0.440  0.00  0.00    +0.000 A 
ATOM     33  C   UNL     1      -0.473   2.917  -2.694  0.00  0.00    +0.000 A 
ATOM     34  C   UNL     1      -0.334   3.156  -1.323  0.00  0.00    +0.000 A 
BRANCH  34  41
ATOM     35  O   UNL     1       0.665   4.445   0.348  0.00  0.00    +0.000 OA
ATOM     36  N   UNL     1       1.990   3.904  -1.467  0.00  0.00    +0.000 N 
ATOM     37  N   UNL     1       4.167   4.716  -1.876  0.00  0.00    +0.000 NA
ATOM     38  N   UNL     1       3.395   4.954   0.232  0.00  0.00    +0.000 NA
ATOM     39  N   UNL     1       5.001   5.381  -1.057  0.00  0.00    +0.000 N 
ATOM     40  N   UNL     1       4.602   5.504   0.211  0.00  0.00    +0.000 NA
ATOM     41  C   UNL     1       0.829   3.892  -0.732  0.00  0.00    +0.000 C 
ATOM     42  C   UNL     1       3.145   4.508  -1.039  0.00  0.00    +0.000 A 
ATOM     43  H   UNL     1       2.022   3.600  -2.424  0.00  0.00    +0.000 HD
ATOM     44  H   UNL     1       5.875   5.786  -1.381  0.00  0.00    +0.000 HD
ENDBRANCH  34  41
ENDBRANCH  28  29
ENDBRANCH   2  28
TORSDOF 7
ENDMDL
MODEL 4
REMARK VINA RESULT:     0.002      5.209      6.994
REMARK INTER + INTRA:          -2.326
REMARK INTER:                   0.000
REMARK INTRA:                  -2.326
REMARK UNBOUND:                -2.329
REMARK  Name = 23549991
REMARK  8 active torsions:
REMARK  status: ('A' for Active; 'I' for Inactive)
REMARK    1  A    between atoms: S_1  and  C_35
REMARK    2  A    between atoms: S_1  and  C_40
REMARK    3  A    between atoms: N_6  and  C_24
REMARK    4  A    between atoms: N_6  and  C_25
REMARK    5  A    between atoms: N_7  and  C_30
REMARK    6  A    between atoms: C_13  and  C_19
REMARK    7  A    between atoms: C_25  and  C_27
REMARK    8  A    between atoms: C_33  and  C_39
REMARK                            x       y       z     vdW  Elec       q    Type
REMARK                         _______ _______ _______ _____ _____    ______ ____
ROOT
ATOM      1  O   UNL     1       0.537   2.783  -1.608  0.00  0.00    +0.000 OA
ATOM      2  N   UNL     1      -0.167   0.558  -1.904  0.00  0.00    +0.000 N 
ATOM      3  N   UNL     1       1.936   1.101  -0.941  0.00  0.00    +0.000 N 
ATOM      4  C   UNL     1       0.764   1.572  -1.527  0.00  0.00    +0.000 C 
ATOM      5  H   UNL     1       1.925   0.139  -0.643  0.00  0.00    +0.000 HD
ENDROOT
BRANCH   3   6
ATOM      6  C   UNL     1       2.932   1.887  -0.296  0.00  0.00    +0.000 A 
ATOM      7  C   UNL     1       2.902   2.300   1.043  0.00  0.00    +0.000 A 
ATOM      8  C   UNL     1       4.017   2.961   1.592  0.00  0.00    +0.000 A 
ATOM      9  C   UNL     1       4.041   2.235  -1.086  0.00  0.00    +0.000 A 
ATOM     10  C   UNL     1       5.161   3.195   0.821  0.00  0.00    +0.000 A 
ATOM     11  C   UNL     1       5.160   2.856  -0.525  0.00  0.00    +0.000 A 
BRANCH   8  12
ATOM     12  S   UNL     1       3.977   3.632   3.241  0.00  0.00    +0.000 S 
ATOM     13  O   UNL     1       2.757   4.409   3.344  0.00  0.00    +0.000 OA
ATOM     14  O   UNL     1       5.269   4.257   3.483  0.00  0.00    +0.000 OA
ATOM     15  C   UNL     1       3.863   2.264   4.350  0.00  0.00    +0.000 C 
ENDBRANCH   8  12
ENDBRANCH   3   6
BRANCH   2  21
ATOM     16  C   UNL     1      -4.242   1.213  -3.159  0.00  0.00    +0.000 A 
ATOM     17  C   UNL     1      -3.873   1.370  -1.819  0.00  0.00    +0.000 A 
ATOM     18  C   UNL     1      -3.224   1.010  -4.089  0.00  0.00    +0.000 A 
ATOM     19  C   UNL     1      -2.538   1.206  -1.407  0.00  0.00    +0.000 A 
ATOM     20  C   UNL     1      -1.894   0.866  -3.674  0.00  0.00    +0.000 A 
ATOM     21  C   UNL     1      -1.525   0.887  -2.318  0.00  0.00    +0.000 A 
BRANCH  16  22
ATOM     22  C   UNL     1      -5.696   1.160  -3.600  0.00  0.00    +0.000 C 
ATOM     23  C   UNL     1      -6.682   1.345  -2.437  0.00  0.00    +0.000 C 
ATOM     24  C   UNL     1      -5.963  -0.146  -4.377  0.00  0.00    +0.000 C 
ATOM     25  C   UNL     1      -8.132   1.195  -2.898  0.00  0.00    +0.000 C 
ATOM     26  C   UNL     1      -7.426  -0.313  -4.778  0.00  0.00    +0.000 C 
ATOM     27  C   UNL     1      -8.355  -0.150  -3.581  0.00  0.00    +0.000 C 
ENDBRANCH  16  22
ENDBRANCH   2  21
BRANCH   2  28
ATOM     28  C   UNL     1       0.182  -0.879  -1.933  0.00  0.00    +0.000 C 
BRANCH  28  29
ATOM     29  C   UNL     1      -0.884  -1.851  -1.446  0.00  0.00    +0.000 A 
ATOM     30  C   UNL     1      -1.110  -1.951  -0.062  0.00  0.00    +0.000 A 
ATOM     31  C   UNL     1      -1.701  -2.604  -2.304  0.00  0.00    +0.000 A 
ATOM     32  C   UNL     1      -2.164  -2.718   0.441  0.00  0.00    +0.000 A 
ATOM     33  C   UNL     1      -2.775  -3.358  -1.800  0.00  0.00    +0.000 A 
ATOM     34  C   UNL     1      -3.034  -3.390  -0.426  0.00  0.00    +0.000 A 
BRANCH  34  41
ATOM     35  O   UNL     1      -4.225  -4.348   1.338  0.00  0.00    +0.000 OA
ATOM     36  N   UNL     1      -5.342  -4.159  -0.676  0.00  0.00    +0.000 N 
ATOM     37  N   UNL     1      -7.476  -5.041  -1.158  0.00  0.00    +0.000 NA
ATOM     38  N   UNL     1      -6.935  -4.879   1.028  0.00  0.00    +0.000 NA
ATOM     39  N   UNL     1      -8.404  -5.544  -0.323  0.00  0.00    +0.000 N 
ATOM     40  N   UNL     1      -8.142  -5.428   0.981  0.00  0.00    +0.000 NA
ATOM     41  C   UNL     1      -4.265  -4.006   0.164  0.00  0.00    +0.000 C 
ATOM     42  C   UNL     1      -6.545  -4.677  -0.269  0.00  0.00    +0.000 A 
ATOM     43  H   UNL     1      -5.268  -4.038  -1.671  0.00  0.00    +0.000 HD
ATOM     44  H   UNL     1      -9.245  -6.005  -0.658  0.00  0.00    +0.000 HD
ENDBRANCH  34  41
ENDBRANCH  28  29
ENDBRANCH   2  28
TORSDOF 7
ENDMDL
MODEL 5
REMARK VINA RESULT:     0.003      5.066      6.485
REMARK INTER + INTRA:          -2.325
REMARK INTER:                   0.000
REMARK INTRA:                  -2.325
REMARK UNBOUND:                -2.329
REMARK  Name = 23549991
REMARK  8 active torsions:
REMARK  status: ('A' for Active; 'I' for Inactive)
REMARK    1  A    between atoms: S_1  and  C_35
REMARK    2  A    between atoms: S_1  and  C_40
REMARK    3  A    between atoms: N_6  and  C_24
REMARK    4  A    between atoms: N_6  and  C_25
REMARK    5  A    between atoms: N_7  and  C_30
REMARK    6  A    between atoms: C_13  and  C_19
REMARK    7  A    between atoms: C_25  and  C_27
REMARK    8  A    between atoms: C_33  and  C_39
REMARK                            x       y       z     vdW  Elec       q    Type
REMARK                         _______ _______ _______ _____ _____    ______ ____
ROOT
ATOM      1  O   UNL     1      -0.021   5.210  -0.853  0.00  0.00    +0.000 OA
ATOM      2  N   UNL     1      -0.511   3.336  -2.189  0.00  0.00    +0.000 N 
ATOM      3  N   UNL     1       1.643   3.691  -1.250  0.00  0.00    +0.000 N 
ATOM      4  C   UNL     1       0.348   4.177  -1.420  0.00  0.00    +0.000 C 
ATOM      5  H   UNL     1       1.785   2.722  -1.486  0.00  0.00    +0.000 HD
ENDROOT
BRANCH   3   6
ATOM      6  C   UNL     1       2.633   4.217  -0.373  0.00  0.00    +0.000 A 
ATOM      7  C   UNL     1       2.765   3.905   0.987  0.00  0.00    +0.000 A 
ATOM      8  C   UNL     1       3.871   4.392   1.707  0.00  0.00    +0.000 A 
ATOM      9  C   UNL     1       3.561   5.095  -0.958  0.00  0.00    +0.000 A 
ATOM     10  C   UNL     1       4.849   5.170   1.078  0.00  0.00    +0.000 A 
ATOM     11  C   UNL     1       4.677   5.543  -0.247  0.00  0.00    +0.000 A 
BRANCH   8  12
ATOM     12  S   UNL     1       4.013   4.145   3.465  0.00  0.00    +0.000 S 
ATOM     13  O   UNL     1       4.413   2.764   3.660  0.00  0.00    +0.000 OA
ATOM     14  O   UNL     1       2.789   4.648   4.071  0.00  0.00    +0.000 OA
ATOM     15  C   UNL     1       5.320   5.189   4.028  0.00  0.00    +0.000 C 
ENDBRANCH   8  12
ENDBRANCH   3   6
BRANCH   2  21
ATOM     16  C   UNL     1      -4.778   3.801  -2.613  0.00  0.00    +0.000 A 
ATOM     17  C   UNL     1      -4.226   3.339  -1.414  0.00  0.00    +0.000 A 
ATOM     18  C   UNL     1      -3.902   4.264  -3.592  0.00  0.00    +0.000 A 
ATOM     19  C   UNL     1      -2.833   3.229  -1.248  0.00  0.00    +0.000 A 
ATOM     20  C   UNL     1      -2.515   4.169  -3.413  0.00  0.00    +0.000 A 
ATOM     21  C   UNL     1      -1.944   3.583  -2.270  0.00  0.00    +0.000 A 
BRANCH  16  22
ATOM     22  C   UNL     1      -6.269   3.720  -2.905  0.00  0.00    +0.000 C 
ATOM     23  C   UNL     1      -7.076   3.132  -1.737  0.00  0.00    +0.000 C 
ATOM     24  C   UNL     1      -6.506   2.942  -4.216  0.00  0.00    +0.000 C 
ATOM     25  C   UNL     1      -8.555   2.978  -2.097  0.00  0.00    +0.000 C 
ATOM     26  C   UNL     1      -7.985   2.742  -4.532  0.00  0.00    +0.000 C 
ATOM     27  C   UNL     1      -8.730   2.129  -3.352  0.00  0.00    +0.000 C 
ENDBRANCH  16  22
ENDBRANCH   2  21
BRANCH   2  28
ATOM     28  C   UNL     1      -0.013   2.186  -2.975  0.00  0.00    +0.000 C 
BRANCH  28  29
ATOM     29  C   UNL     1      -0.875   0.931  -2.973  0.00  0.00    +0.000 A 
ATOM     30  C   UNL     1      -0.870   0.124  -1.822  0.00  0.00    +0.000 A 
ATOM     31  C   UNL     1      -1.728   0.572  -4.028  0.00  0.00    +0.000 A 
ATOM     32  C   UNL     1      -1.742  -0.962  -1.702  0.00  0.00    +0.000 A 
ATOM     33  C   UNL     1      -2.621  -0.507  -3.899  0.00  0.00    +0.000 A 
ATOM     34  C   UNL     1      -2.656  -1.258  -2.720  0.00  0.00    +0.000 A 
BRANCH  34  41
ATOM     35  O   UNL     1      -3.445  -3.153  -1.608  0.00  0.00    +0.000 OA
ATOM     36  N   UNL     1      -4.876  -2.193  -3.146  0.00  0.00    +0.000 N 
ATOM     37  N   UNL     1      -6.948  -3.079  -3.843  0.00  0.00    +0.000 NA
ATOM     38  N   UNL     1      -6.094  -3.925  -1.933  0.00  0.00    +0.000 NA
ATOM     39  N   UNL     1      -7.673  -4.081  -3.314  0.00  0.00    +0.000 N 
ATOM     40  N   UNL     1      -7.226  -4.580  -2.159  0.00  0.00    +0.000 NA
ATOM     41  C   UNL     1      -3.704  -2.289  -2.434  0.00  0.00    +0.000 C 
ATOM     42  C   UNL     1      -5.936  -3.045  -2.969  0.00  0.00    +0.000 A 
ATOM     43  H   UNL     1      -4.972  -1.586  -3.942  0.00  0.00    +0.000 HD
ATOM     44  H   UNL     1      -8.500  -4.456  -3.771  0.00  0.00    +0.000 HD
ENDBRANCH  34  41
ENDBRANCH  28  29
ENDBRANCH   2  28
TORSDOF 7
ENDMDL
MODEL 6
REMARK VINA RESULT:     0.004      5.087     10.573
REMARK INTER + INTRA:          -2.324
REMARK INTER:                   0.000
REMARK INTRA:                  -2.324
REMARK UNBOUND:                -2.329
REMARK  Name = 23549991
REMARK  8 active torsions:
REMARK  status: ('A' for Active; 'I' for Inactive)
REMARK    1  A    between atoms: S_1  and  C_35
REMARK    2  A    between atoms: S_1  and  C_40
REMARK    3  A    between atoms: N_6  and  C_24
REMARK    4  A    between atoms: N_6  and  C_25
REMARK    5  A    between atoms: N_7  and  C_30
REMARK    6  A    between atoms: C_13  and  C_19
REMARK    7  A    between atoms: C_25  and  C_27
REMARK    8  A    between atoms: C_33  and  C_39
REMARK                            x       y       z     vdW  Elec       q    Type
REMARK                         _______ _______ _______ _____ _____    ______ ____
ROOT
ATOM      1  O   UNL     1      -4.139  -0.065   2.226  0.00  0.00    +0.000 OA
ATOM      2  N   UNL     1      -3.569  -1.831   0.779  0.00  0.00    +0.000 N 
ATOM      3  N   UNL     1      -5.431  -0.414   0.371  0.00  0.00    +0.000 N 
ATOM      4  C   UNL     1      -4.381  -0.744   1.223  0.00  0.00    +0.000 C 
ATOM      5  H   UNL     1      -5.391  -0.810  -0.555  0.00  0.00    +0.000 HD
ENDROOT
BRANCH   3   6
ATOM      6  C   UNL     1      -6.262   0.739   0.463  0.00  0.00    +0.000 A 
ATOM      7  C   UNL     1      -5.963   2.002  -0.065  0.00  0.00    +0.000 A 
ATOM      8  C   UNL     1      -6.933   3.021  -0.020  0.00  0.00    +0.000 A 
ATOM      9  C   UNL     1      -7.492   0.553   1.116  0.00  0.00    +0.000 A 
ATOM     10  C   UNL     1      -8.197   2.783   0.530  0.00  0.00    +0.000 A 
ATOM     11  C   UNL     1      -8.464   1.556   1.123  0.00  0.00    +0.000 A 
BRANCH   8  12
ATOM     12  S   UNL     1      -6.557   4.681  -0.546  0.00  0.00    +0.000 S 
ATOM     13  O   UNL     1      -5.360   4.597  -1.361  0.00  0.00    +0.000 OA
ATOM     14  O   UNL     1      -6.582   5.525   0.640  0.00  0.00    +0.000 OA
ATOM     15  C   UNL     1      -7.893   5.211  -1.570  0.00  0.00    +0.000 C 
ENDBRANCH   8  12
ENDBRANCH   3   6
BRANCH   2  21
ATOM     16  C   UNL     1       0.206  -3.025   2.491  0.00  0.00    +0.000 A 
ATOM     17  C   UNL     1       0.107  -1.860   1.724  0.00  0.00    +0.000 A 
ATOM     18  C   UNL     1      -0.976  -3.683   2.823  0.00  0.00    +0.000 A 
ATOM     19  C   UNL     1      -1.128  -1.435   1.201  0.00  0.00    +0.000 A 
ATOM     20  C   UNL     1      -2.206  -3.244   2.314  0.00  0.00    +0.000 A 
ATOM     21  C   UNL     1      -2.307  -2.154   1.432  0.00  0.00    +0.000 A 
BRANCH  16  22
ATOM     22  C   UNL     1       1.547  -3.630   2.879  0.00  0.00    +0.000 C 
ATOM     23  C   UNL     1       2.736  -2.719   2.538  0.00  0.00    +0.000 C 
ATOM     24  C   UNL     1       1.695  -5.029   2.246  0.00  0.00    +0.000 C 
ATOM     25  C   UNL     1       4.071  -3.394   2.854  0.00  0.00    +0.000 C 
ATOM     26  C   UNL     1       3.054  -5.666   2.518  0.00  0.00    +0.000 C 
ATOM     27  C   UNL     1       4.195  -4.732   2.133  0.00  0.00    +0.000 C 
ENDBRANCH  16  22
ENDBRANCH   2  21
BRANCH   2  28
ATOM     28  C   UNL     1      -3.958  -2.717  -0.340  0.00  0.00    +0.000 C 
BRANCH  28  29
ATOM     29  C   UNL     1      -2.850  -3.138  -1.295  0.00  0.00    +0.000 A 
ATOM     30  C   UNL     1      -2.373  -2.192  -2.219  0.00  0.00    +0.000 A 
ATOM     31  C   UNL     1      -2.230  -4.397  -1.261  0.00  0.00    +0.000 A 
ATOM     32  C   UNL     1      -1.268  -2.469  -3.027  0.00  0.00    +0.000 A 
ATOM     33  C   UNL     1      -1.104  -4.669  -2.057  0.00  0.00    +0.000 A 
ATOM     34  C   UNL     1      -0.595  -3.692  -2.919  0.00  0.00    +0.000 A 
BRANCH  34  41
ATOM     35  O   UNL     1       0.851  -3.206  -4.687  0.00  0.00    +0.000 OA
ATOM     36  N   UNL     1       1.630  -4.692  -3.098  0.00  0.00    +0.000 N 
ATOM     37  N   UNL     1       3.644  -5.914  -3.223  0.00  0.00    +0.000 NA
ATOM     38  N   UNL     1       3.466  -4.142  -4.611  0.00  0.00    +0.000 NA
ATOM     39  N   UNL     1       4.686  -5.765  -4.061  0.00  0.00    +0.000 N 
ATOM     40  N   UNL     1       4.641  -4.702  -4.868  0.00  0.00    +0.000 NA
ATOM     41  C   UNL     1       0.705  -3.837  -3.649  0.00  0.00    +0.000 C 
ATOM     42  C   UNL     1       2.875  -4.900  -3.636  0.00  0.00    +0.000 A 
ATOM     43  H   UNL     1       1.398  -5.326  -2.354  0.00  0.00    +0.000 HD
ATOM     44  H   UNL     1       5.455  -6.428  -4.098  0.00  0.00    +0.000 HD
ENDBRANCH  34  41
ENDBRANCH  28  29
ENDBRANCH   2  28
TORSDOF 7
ENDMDL
MODEL 7
REMARK VINA RESULT:     0.004      5.823      8.039
REMARK INTER + INTRA:          -2.323
REMARK INTER:                   0.000
REMARK INTRA:                  -2.323
REMARK UNBOUND:                -2.329
REMARK  Name = 23549991
REMARK  8 active torsions:
REMARK  status: ('A' for Active; 'I' for Inactive)
REMARK    1  A    between atoms: S_1  and  C_35
REMARK    2  A    between atoms: S_1  and  C_40
REMARK    3  A    between atoms: N_6  and  C_24
REMARK    4  A    between atoms: N_6  and  C_25
REMARK    5  A    between atoms: N_7  and  C_30
REMARK    6  A    between atoms: C_13  and  C_19
REMARK    7  A    between atoms: C_25  and  C_27
REMARK    8  A    between atoms: C_33  and  C_39
REMARK                            x       y       z     vdW  Elec       q    Type
REMARK                         _______ _______ _______ _____ _____    ______ ____
ROOT
ATOM      1  O   UNL     1       0.421   0.828  -2.973  0.00  0.00    +0.000 OA
ATOM      2  N   UNL     1      -0.222  -1.110  -1.803  0.00  0.00    +0.000 N 
ATOM      3  N   UNL     1       1.808   0.033  -1.337  0.00  0.00    +0.000 N 
ATOM      4  C   UNL     1       0.665  -0.040  -2.129  0.00  0.00    +0.000 C 
ATOM      5  H   UNL     1       1.797  -0.518  -0.494  0.00  0.00    +0.000 HD
ENDROOT
BRANCH   3   6
ATOM      6  C   UNL     1       2.748   1.102  -1.309  0.00  0.00    +0.000 A 
ATOM      7  C   UNL     1       2.629   2.270  -0.544  0.00  0.00    +0.000 A 
ATOM      8  C   UNL     1       3.696   3.187  -0.506  0.00  0.00    +0.000 A 
ATOM      9  C   UNL     1       3.896   0.926  -2.099  0.00  0.00    +0.000 A 
ATOM     10  C   UNL     1       4.880   2.938  -1.208  0.00  0.00    +0.000 A 
ATOM     11  C   UNL     1       4.967   1.820  -2.026  0.00  0.00    +0.000 A 
BRANCH   8  12
ATOM     12  S   UNL     1       3.543   4.751   0.332  0.00  0.00    +0.000 S 
ATOM     13  O   UNL     1       4.491   5.653  -0.294  0.00  0.00    +0.000 OA
ATOM     14  O   UNL     1       3.616   4.484   1.761  0.00  0.00    +0.000 OA
ATOM     15  C   UNL     1       1.913   5.348   0.014  0.00  0.00    +0.000 C 
ENDBRANCH   8  12
ENDBRANCH   3   6
BRANCH   2  21
ATOM     16  C   UNL     1      -4.224  -1.623  -3.328  0.00  0.00    +0.000 A 
ATOM     17  C   UNL     1      -3.941  -0.630  -2.384  0.00  0.00    +0.000 A 
ATOM     18  C   UNL     1      -3.149  -2.316  -3.879  0.00  0.00    +0.000 A 
ATOM     19  C   UNL     1      -2.631  -0.423  -1.916  0.00  0.00    +0.000 A 
ATOM     20  C   UNL     1      -1.843  -2.091  -3.422  0.00  0.00    +0.000 A 
ATOM     21  C   UNL     1      -1.558  -1.193  -2.379  0.00  0.00    +0.000 A 
BRANCH  16  22
ATOM     22  C   UNL     1      -5.648  -2.023  -3.684  0.00  0.00    +0.000 C 
ATOM     23  C   UNL     1      -6.706  -1.175  -2.961  0.00  0.00    +0.000 C 
ATOM     24  C   UNL     1      -5.850  -3.531  -3.431  0.00  0.00    +0.000 C 
ATOM     25  C   UNL     1      -8.123  -1.661  -3.269  0.00  0.00    +0.000 C 
ATOM     26  C   UNL     1      -7.283  -3.991  -3.682  0.00  0.00    +0.000 C 
ATOM     27  C   UNL     1      -8.287  -3.136  -2.918  0.00  0.00    +0.000 C 
ENDBRANCH  16  22
ENDBRANCH   2  21
BRANCH   2  28
ATOM     28  C   UNL     1       0.156  -2.216  -0.896  0.00  0.00    +0.000 C 
BRANCH  28  29
ATOM     29  C   UNL     1      -0.901  -2.674   0.099  0.00  0.00    +0.000 A 
ATOM     30  C   UNL     1      -1.160  -1.861   1.216  0.00  0.00    +0.000 A 
ATOM     31  C   UNL     1      -1.681  -3.829  -0.071  0.00  0.00    +0.000 A 
ATOM     32  C   UNL     1      -2.210  -2.153   2.091  0.00  0.00    +0.000 A 
ATOM     33  C   UNL     1      -2.751  -4.112   0.795  0.00  0.00    +0.000 A 
ATOM     34  C   UNL     1      -3.043  -3.254   1.861  0.00  0.00    +0.000 A 
BRANCH  34  41
ATOM     35  O   UNL     1      -4.235  -2.940   3.844  0.00  0.00    +0.000 OA
ATOM     36  N   UNL     1      -5.356  -4.007   2.127  0.00  0.00    +0.000 N 
ATOM     37  N   UNL     1      -7.494  -4.991   2.278  0.00  0.00    +0.000 NA
ATOM     38  N   UNL     1      -6.948  -3.539   3.917  0.00  0.00    +0.000 NA
ATOM     39  N   UNL     1      -8.422  -4.881   3.246  0.00  0.00    +0.000 N 
ATOM     40  N   UNL     1      -8.157  -3.998   4.212  0.00  0.00    +0.000 NA
ATOM     41  C   UNL     1      -4.275  -3.381   2.703  0.00  0.00    +0.000 C 
ATOM     42  C   UNL     1      -6.560  -4.167   2.764  0.00  0.00    +0.000 A 
ATOM     43  H   UNL     1      -5.283  -4.515   1.263  0.00  0.00    +0.000 HD
ATOM     44  H   UNL     1      -9.265  -5.447   3.259  0.00  0.00    +0.000 HD
ENDBRANCH  34  41
ENDBRANCH  28  29
ENDBRANCH   2  28
TORSDOF 7
ENDMDL
MODEL 8
REMARK VINA RESULT:     0.004      4.579     10.073
REMARK INTER + INTRA:          -2.323
REMARK INTER:                   0.000
REMARK INTRA:                  -2.323
REMARK UNBOUND:                -2.329
REMARK  Name = 23549991
REMARK  8 active torsions:
REMARK  status: ('A' for Active; 'I' for Inactive)
REMARK    1  A    between atoms: S_1  and  C_35
REMARK    2  A    between atoms: S_1  and  C_40
REMARK    3  A    between atoms: N_6  and  C_24
REMARK    4  A    between atoms: N_6  and  C_25
REMARK    5  A    between atoms: N_7  and  C_30
REMARK    6  A    between atoms: C_13  and  C_19
REMARK    7  A    between atoms: C_25  and  C_27
REMARK    8  A    between atoms: C_33  and  C_39
REMARK                            x       y       z     vdW  Elec       q    Type
REMARK                         _______ _______ _______ _____ _____    ______ ____
ROOT
ATOM      1  O   UNL     1      -2.037   4.927   0.804  0.00  0.00    +0.000 OA
ATOM      2  N   UNL     1      -0.701   3.071   1.358  0.00  0.00    +0.000 N 
ATOM      3  N   UNL     1      -2.674   3.613   2.565  0.00  0.00    +0.000 N 
ATOM      4  C   UNL     1      -1.798   3.966   1.541  0.00  0.00    +0.000 C 
ATOM      5  H   UNL     1      -2.581   2.676   2.923  0.00  0.00    +0.000 HD
ENDROOT
BRANCH   3   6
ATOM      6  C   UNL     1      -3.942   4.204   2.831  0.00  0.00    +0.000 A 
ATOM      7  C   UNL     1      -5.152   3.843   2.222  0.00  0.00    +0.000 A 
ATOM      8  C   UNL     1      -6.355   4.415   2.675  0.00  0.00    +0.000 A 
ATOM      9  C   UNL     1      -3.953   5.207   3.814  0.00  0.00    +0.000 A 
ATOM     10  C   UNL     1      -6.359   5.327   3.736  0.00  0.00    +0.000 A 
ATOM     11  C   UNL     1      -5.154   5.742   4.285  0.00  0.00    +0.000 A 
BRANCH   8  12
ATOM     12  S   UNL     1      -7.899   4.101   1.845  0.00  0.00    +0.000 S 
ATOM     13  O   UNL     1      -7.591   3.957   0.436  0.00  0.00    +0.000 OA
ATOM     14  O   UNL     1      -8.843   5.115   2.292  0.00  0.00    +0.000 OA
ATOM     15  C   UNL     1      -8.501   2.555   2.446  0.00  0.00    +0.000 C 
ENDBRANCH   8  12
ENDBRANCH   3   6
BRANCH   2  21
ATOM     16  C   UNL     1       2.049   3.098  -1.965  0.00  0.00    +0.000 A 
ATOM     17  C   UNL     1       0.740   2.633  -2.126  0.00  0.00    +0.000 A 
ATOM     18  C   UNL     1       2.375   3.706  -0.755  0.00  0.00    +0.000 A 
ATOM     19  C   UNL     1      -0.179   2.664  -1.061  0.00  0.00    +0.000 A 
ATOM     20  C   UNL     1       1.449   3.751   0.296  0.00  0.00    +0.000 A 
ATOM     21  C   UNL     1       0.173   3.167   0.196  0.00  0.00    +0.000 A 
BRANCH  16  22
ATOM     22  C   UNL     1       3.126   2.873  -3.017  0.00  0.00    +0.000 C 
ATOM     23  C   UNL     1       2.568   2.310  -4.333  0.00  0.00    +0.000 C 
ATOM     24  C   UNL     1       4.246   1.984  -2.440  0.00  0.00    +0.000 C 
ATOM     25  C   UNL     1       3.684   2.009  -5.334  0.00  0.00    +0.000 C 
ATOM     26  C   UNL     1       5.322   1.640  -3.465  0.00  0.00    +0.000 C 
ATOM     27  C   UNL     1       4.716   1.057  -4.737  0.00  0.00    +0.000 C 
ENDBRANCH  16  22
ENDBRANCH   2  21
BRANCH   2  28
ATOM     28  C   UNL     1      -0.355   2.017   2.335  0.00  0.00    +0.000 C 
BRANCH  28  29
ATOM     29  C   UNL     1       0.092   0.677   1.766  0.00  0.00    +0.000 A 
ATOM     30  C   UNL     1      -0.888  -0.178   1.232  0.00  0.00    +0.000 A 
ATOM     31  C   UNL     1       1.434   0.276   1.683  0.00  0.00    +0.000 A 
ATOM     32  C   UNL     1      -0.531  -1.356   0.571  0.00  0.00    +0.000 A 
ATOM     33  C   UNL     1       1.796  -0.899   1.000  0.00  0.00    +0.000 A 
ATOM     34  C   UNL     1       0.816  -1.703   0.408  0.00  0.00    +0.000 A 
BRANCH  34  41
ATOM     35  O   UNL     1       0.299  -3.743  -0.602  0.00  0.00    +0.000 OA
ATOM     36  N   UNL     1       2.357  -2.828  -1.122  0.00  0.00    +0.000 N 
ATOM     37  N   UNL     1       4.048  -3.871  -2.392  0.00  0.00    +0.000 NA
ATOM     38  N   UNL     1       1.980  -4.758  -2.568  0.00  0.00    +0.000 NA
ATOM     39  N   UNL     1       3.988  -4.977  -3.155  0.00  0.00    +0.000 N 
ATOM     40  N   UNL     1       2.774  -5.508  -3.321  0.00  0.00    +0.000 NA
ATOM     41  C   UNL     1       1.133  -2.853  -0.496  0.00  0.00    +0.000 C 
ATOM     42  C   UNL     1       2.771  -3.795  -2.001  0.00  0.00    +0.000 A 
ATOM     43  H   UNL     1       3.079  -2.180  -0.862  0.00  0.00    +0.000 HD
ATOM     44  H   UNL     1       4.815  -5.402  -3.566  0.00  0.00    +0.000 HD
ENDBRANCH  34  41
ENDBRANCH  28  29
ENDBRANCH   2  28
TORSDOF 7
ENDMDL
MODEL 9
REMARK VINA RESULT:     0.005      3.787      4.702
REMARK INTER + INTRA:          -2.323
REMARK INTER:                   0.000
REMARK INTRA:                  -2.323
REMARK UNBOUND:                -2.329
REMARK  Name = 23549991
REMARK  8 active torsions:
REMARK  status: ('A' for Active; 'I' for Inactive)
REMARK    1  A    between atoms: S_1  and  C_35
REMARK    2  A    between atoms: S_1  and  C_40
REMARK    3  A    between atoms: N_6  and  C_24
REMARK    4  A    between atoms: N_6  and  C_25
REMARK    5  A    between atoms: N_7  and  C_30
REMARK    6  A    between atoms: C_13  and  C_19
REMARK    7  A    between atoms: C_25  and  C_27
REMARK    8  A    between atoms: C_33  and  C_39
REMARK                            x       y       z     vdW  Elec       q    Type
REMARK                         _______ _______ _______ _____ _____    ______ ____
ROOT
ATOM      1  O   UNL     1       0.283  -4.456   0.762  0.00  0.00    +0.000 OA
ATOM      2  N   UNL     1      -0.520  -2.322   1.343  0.00  0.00    +0.000 N 
ATOM      3  N   UNL     1       1.739  -2.693   0.708  0.00  0.00    +0.000 N 
ATOM      4  C   UNL     1       0.490  -3.255   0.961  0.00  0.00    +0.000 C 
ATOM      5  H   UNL     1       1.760  -1.691   0.604  0.00  0.00    +0.000 HD
ENDROOT
BRANCH   3   6
ATOM      6  C   UNL     1       2.858  -3.351   0.123  0.00  0.00    +0.000 A 
ATOM      7  C   UNL     1       3.087  -3.499  -1.252  0.00  0.00    +0.000 A 
ATOM      8  C   UNL     1       4.301  -4.054  -1.698  0.00  0.00    +0.000 A 
ATOM      9  C   UNL     1       3.809  -3.855   1.025  0.00  0.00    +0.000 A 
ATOM     10  C   UNL     1       5.288  -4.443  -0.786  0.00  0.00    +0.000 A 
ATOM     11  C   UNL     1       5.028  -4.368   0.576  0.00  0.00    +0.000 A 
BRANCH   8  12
ATOM     12  S   UNL     1       4.586  -4.395  -3.422  0.00  0.00    +0.000 S 
ATOM     13  O   UNL     1       5.294  -5.659  -3.484  0.00  0.00    +0.000 OA
ATOM     14  O   UNL     1       5.167  -3.197  -4.009  0.00  0.00    +0.000 OA
ATOM     15  C   UNL     1       3.002  -4.606  -4.173  0.00  0.00    +0.000 C 
ENDBRANCH   8  12
ENDBRANCH   3   6
BRANCH   2  21
ATOM     16  C   UNL     1      -4.741  -3.157   1.652  0.00  0.00    +0.000 A 
ATOM     17  C   UNL     1      -4.118  -3.078   0.402  0.00  0.00    +0.000 A 
ATOM     18  C   UNL     1      -3.927  -3.129   2.782  0.00  0.00    +0.000 A 
ATOM     19  C   UNL     1      -2.733  -2.854   0.291  0.00  0.00    +0.000 A 
ATOM     20  C   UNL     1      -2.545  -2.924   2.664  0.00  0.00    +0.000 A 
ATOM     21  C   UNL     1      -1.922  -2.708   1.422  0.00  0.00    +0.000 A 
BRANCH  16  22
ATOM     22  C   UNL     1      -6.254  -3.172   1.805  0.00  0.00    +0.000 C 
ATOM     23  C   UNL     1      -6.982  -2.523   0.619  0.00  0.00    +0.000 C 
ATOM     24  C   UNL     1      -6.653  -2.524   3.148  0.00  0.00    +0.000 C 
ATOM     25  C   UNL     1      -8.494  -2.471   0.846  0.00  0.00    +0.000 C 
ATOM     26  C   UNL     1      -8.163  -2.423   3.336  0.00  0.00    +0.000 C 
ATOM     27  C   UNL     1      -8.830  -1.744   2.144  0.00  0.00    +0.000 C 
ENDBRANCH  16  22
ENDBRANCH   2  21
BRANCH   2  28
ATOM     28  C   UNL     1      -0.218  -0.922   1.714  0.00  0.00    +0.000 C 
BRANCH  28  29
ATOM     29  C   UNL     1      -1.177   0.143   1.200  0.00  0.00    +0.000 A 
ATOM     30  C   UNL     1      -1.129   0.477  -0.165  0.00  0.00    +0.000 A 
ATOM     31  C   UNL     1      -2.153   0.762   1.997  0.00  0.00    +0.000 A 
ATOM     32  C   UNL     1      -2.072   1.343  -0.727  0.00  0.00    +0.000 A 
ATOM     33  C   UNL     1      -3.115   1.615   1.429  0.00  0.00    +0.000 A 
ATOM     34  C   UNL     1      -3.100   1.881   0.055  0.00  0.00    +0.000 A 
BRANCH  34  41
ATOM     35  O   UNL     1      -3.913   3.219  -1.677  0.00  0.00    +0.000 OA
ATOM     36  N   UNL     1      -5.443   2.573  -0.070  0.00  0.00    +0.000 N 
ATOM     37  N   UNL     1      -7.674   3.322   0.090  0.00  0.00    +0.000 NA
ATOM     38  N   UNL     1      -6.648   3.665  -1.891  0.00  0.00    +0.000 NA
ATOM     39  N   UNL     1      -8.416   4.003  -0.802  0.00  0.00    +0.000 N 
ATOM     40  N   UNL     1      -7.862   4.189  -2.003  0.00  0.00    +0.000 NA
ATOM     41  C   UNL     1      -4.198   2.617  -0.650  0.00  0.00    +0.000 C 
ATOM     42  C   UNL     1      -6.549   3.171  -0.618  0.00  0.00    +0.000 A 
ATOM     43  H   UNL     1      -5.588   2.228   0.862  0.00  0.00    +0.000 HD
ATOM     44  H   UNL     1      -9.334   4.376  -0.577  0.00  0.00    +0.000 HD
ENDBRANCH  34  41
ENDBRANCH  28  29
ENDBRANCH   2  28
TORSDOF 7
ENDMDL
MODEL 10
REMARK VINA RESULT:     0.005      3.765     10.220
REMARK INTER + INTRA:          -2.322
REMARK INTER:                   0.000
REMARK INTRA:                  -2.322
REMARK UNBOUND:                -2.329
REMARK  Name = 23549991
REMARK  8 active torsions:
REMARK  status: ('A' for Active; 'I' for Inactive)
REMARK    1  A    between atoms: S_1  and  C_35
REMARK    2  A    between atoms: S_1  and  C_40
REMARK    3  A    between atoms: N_6  and  C_24
REMARK    4  A    between atoms: N_6  and  C_25
REMARK    5  A    between atoms: N_7  and  C_30
REMARK    6  A    between atoms: C_13  and  C_19
REMARK    7  A    between atoms: C_25  and  C_27
REMARK    8  A    between atoms: C_33  and  C_39
REMARK                            x       y       z     vdW  Elec       q    Type
REMARK                         _______ _______ _______ _____ _____    ______ ____
ROOT
ATOM      1  O   UNL     1      -4.314   3.690   0.108  0.00  0.00    +0.000 OA
ATOM      2  N   UNL     1      -3.473   1.926   1.417  0.00  0.00    +0.000 N 
ATOM      3  N   UNL     1      -5.571   1.790   0.310  0.00  0.00    +0.000 N 
ATOM      4  C   UNL     1      -4.456   2.570   0.607  0.00  0.00    +0.000 C 
ATOM      5  H   UNL     1      -5.484   0.805   0.501  0.00  0.00    +0.000 HD
ENDROOT
BRANCH   3   6
ATOM      6  C   UNL     1      -6.594   2.102  -0.630  0.00  0.00    +0.000 A 
ATOM      7  C   UNL     1      -6.545   1.833  -2.004  0.00  0.00    +0.000 A 
ATOM      8  C   UNL     1      -7.681   2.073  -2.799  0.00  0.00    +0.000 A 
ATOM      9  C   UNL     1      -7.749   2.701  -0.098  0.00  0.00    +0.000 A 
ATOM     10  C   UNL     1      -8.863   2.559  -2.231  0.00  0.00    +0.000 A 
ATOM     11  C   UNL     1      -8.885   2.899  -0.886  0.00  0.00    +0.000 A 
BRANCH   8  12
ATOM     12  S   UNL     1      -7.629   1.884  -4.570  0.00  0.00    +0.000 S 
ATOM     13  O   UNL     1      -8.286   3.048  -5.131  0.00  0.00    +0.000 OA
ATOM     14  O   UNL     1      -8.116   0.546  -4.875  0.00  0.00    +0.000 OA
ATOM     15  C   UNL     1      -5.929   1.921  -5.041  0.00  0.00    +0.000 C 
ENDBRANCH   8  12
ENDBRANCH   3   6
BRANCH   2  21
ATOM     16  C   UNL     1       0.498   3.405   2.222  0.00  0.00    +0.000 A 
ATOM     17  C   UNL     1       0.174   2.874   0.969  0.00  0.00    +0.000 A 
ATOM     18  C   UNL     1      -0.540   3.596   3.131  0.00  0.00    +0.000 A 
ATOM     19  C   UNL     1      -1.130   2.433   0.680  0.00  0.00    +0.000 A 
ATOM     20  C   UNL     1      -1.841   3.172   2.830  0.00  0.00    +0.000 A 
ATOM     21  C   UNL     1      -2.157   2.514   1.628  0.00  0.00    +0.000 A 
BRANCH  16  22
ATOM     22  C   UNL     1       1.935   3.679   2.641  0.00  0.00    +0.000 C 
ATOM     23  C   UNL     1       2.933   3.536   1.482  0.00  0.00    +0.000 C 
ATOM     24  C   UNL     1       2.313   2.784   3.839  0.00  0.00    +0.000 C 
ATOM     25  C   UNL     1       4.375   3.727   1.956  0.00  0.00    +0.000 C 
ATOM     26  C   UNL     1       3.770   2.939   4.262  0.00  0.00    +0.000 C 
ATOM     27  C   UNL     1       4.717   2.757   3.082  0.00  0.00    +0.000 C 
ENDBRANCH  16  22
ENDBRANCH   2  21
BRANCH   2  28
ATOM     28  C   UNL     1      -3.725   0.649   2.119  0.00  0.00    +0.000 C 
BRANCH  28  29
ATOM     29  C   UNL     1      -2.581  -0.356   2.144  0.00  0.00    +0.000 A 
ATOM     30  C   UNL     1      -2.309  -1.082   0.971  0.00  0.00    +0.000 A 
ATOM     31  C   UNL     1      -1.739  -0.548   3.250  0.00  0.00    +0.000 A 
ATOM     32  C   UNL     1      -1.191  -1.914   0.884  0.00  0.00    +0.000 A 
ATOM     33  C   UNL     1      -0.601  -1.369   3.157  0.00  0.00    +0.000 A 
ATOM     34  C   UNL     1      -0.301  -2.028   1.960  0.00  0.00    +0.000 A 
BRANCH  34  41
ATOM     35  O   UNL     1       1.009  -3.602   0.840  0.00  0.00    +0.000 OA
ATOM     36  N   UNL     1       2.040  -2.428   2.542  0.00  0.00    +0.000 N 
ATOM     37  N   UNL     1       4.207  -2.834   3.381  0.00  0.00    +0.000 NA
ATOM     38  N   UNL     1       3.734  -3.735   1.366  0.00  0.00    +0.000 NA
ATOM     39  N   UNL     1       5.193  -3.596   2.875  0.00  0.00    +0.000 N 
ATOM     40  N   UNL     1       4.971  -4.112   1.664  0.00  0.00    +0.000 NA
ATOM     41  C   UNL     1       0.986  -2.756   1.724  0.00  0.00    +0.000 C 
ATOM     42  C   UNL     1       3.287  -2.988   2.423  0.00  0.00    +0.000 A 
ATOM     43  H   UNL     1       1.924  -1.869   3.369  0.00  0.00    +0.000 HD
ATOM     44  H   UNL     1       6.049  -3.790   3.387  0.00  0.00    +0.000 HD
ENDBRANCH  34  41
ENDBRANCH  28  29
ENDBRANCH   2  28
TORSDOF 7
ENDMDL
MODEL 11
REMARK VINA RESULT:     0.005      5.160      9.402
REMARK INTER + INTRA:          -2.322
REMARK INTER:                   0.000
REMARK INTRA:                  -2.322
REMARK UNBOUND:                -2.329
REMARK  Name = 23549991
REMARK  8 active torsions:
REMARK  status: ('A' for Active; 'I' for Inactive)
REMARK    1  A    between atoms: S_1  and  C_35
REMARK    2  A    between atoms: S_1  and  C_40
REMARK    3  A    between atoms: N_6  and  C_24
REMARK    4  A    between atoms: N_6  and  C_25
REMARK    5  A    between atoms: N_7  and  C_30
REMARK    6  A    between atoms: C_13  and  C_19
REMARK    7  A    between atoms: C_25  and  C_27
REMARK    8  A    between atoms: C_33  and  C_39
REMARK                            x       y       z     vdW  Elec       q    Type
REMARK                         _______ _______ _______ _____ _____    ______ ____
ROOT
ATOM      1  O   UNL     1      -2.092  -4.727  -1.721  0.00  0.00    +0.000 OA
ATOM      2  N   UNL     1      -1.024  -2.674  -2.149  0.00  0.00    +0.000 N 
ATOM      3  N   UNL     1      -3.023  -3.314  -3.261  0.00  0.00    +0.000 N 
ATOM      4  C   UNL     1      -2.027  -3.668  -2.354  0.00  0.00    +0.000 C 
ATOM      5  H   UNL     1      -3.067  -2.339  -3.510  0.00  0.00    +0.000 HD
ENDROOT
BRANCH   3   6
ATOM      6  C   UNL     1      -4.236  -4.020  -3.500  0.00  0.00    +0.000 A 
ATOM      7  C   UNL     1      -5.419  -3.880  -2.760  0.00  0.00    +0.000 A 
ATOM      8  C   UNL     1      -6.587  -4.539  -3.186  0.00  0.00    +0.000 A 
ATOM      9  C   UNL     1      -4.225  -4.899  -4.596  0.00  0.00    +0.000 A 
ATOM     10  C   UNL     1      -6.586  -5.318  -4.348  0.00  0.00    +0.000 A 
ATOM     11  C   UNL     1      -5.397  -5.518  -5.036  0.00  0.00    +0.000 A 
BRANCH   8  12
ATOM     12  S   UNL     1      -8.075  -4.511  -2.208  0.00  0.00    +0.000 S 
ATOM     13  O   UNL     1      -8.677  -5.824  -2.331  0.00  0.00    +0.000 OA
ATOM     14  O   UNL     1      -8.820  -3.321  -2.592  0.00  0.00    +0.000 OA
ATOM     15  C   UNL     1      -7.583  -4.277  -0.530  0.00  0.00    +0.000 C 
ENDBRANCH   8  12
ENDBRANCH   3   6
BRANCH   2  21
ATOM     16  C   UNL     1       1.991  -2.732   0.936  0.00  0.00    +0.000 A 
ATOM     17  C   UNL     1       0.654  -2.466   1.249  0.00  0.00    +0.000 A 
ATOM     18  C   UNL     1       2.281  -3.144  -0.363  0.00  0.00    +0.000 A 
ATOM     19  C   UNL     1      -0.345  -2.491   0.259  0.00  0.00    +0.000 A 
ATOM     20  C   UNL     1       1.278  -3.186  -1.341  0.00  0.00    +0.000 A 
ATOM     21  C   UNL     1      -0.045  -2.791  -1.075  0.00  0.00    +0.000 A 
BRANCH  16  22
ATOM     22  C   UNL     1       3.121  -2.493   1.927  0.00  0.00    +0.000 C 
ATOM     23  C   UNL     1       2.618  -2.076   3.317  0.00  0.00    +0.000 C 
ATOM     24  C   UNL     1       4.122  -1.473   1.347  0.00  0.00    +0.000 C 
ATOM     25  C   UNL     1       3.778  -1.755   4.261  0.00  0.00    +0.000 C 
ATOM     26  C   UNL     1       5.239  -1.115   2.322  0.00  0.00    +0.000 C 
ATOM     27  C   UNL     1       4.684  -0.679   3.673  0.00  0.00    +0.000 C 
ENDBRANCH  16  22
ENDBRANCH   2  21
BRANCH   2  28
ATOM     28  C   UNL     1      -0.884  -1.485  -3.017  0.00  0.00    +0.000 C 
BRANCH  28  29
ATOM     29  C   UNL     1      -0.572  -0.165  -2.324  0.00  0.00    +0.000 A 
ATOM     30  C   UNL     1      -1.607   0.479  -1.625  0.00  0.00    +0.000 A 
ATOM     31  C   UNL     1       0.708   0.409  -2.287  0.00  0.00    +0.000 A 
ATOM     32  C   UNL     1      -1.355   1.617  -0.855  0.00  0.00    +0.000 A 
ATOM     33  C   UNL     1       0.968   1.542  -1.495  0.00  0.00    +0.000 A 
ATOM     34  C   UNL     1      -0.057   2.130  -0.745  0.00  0.00    +0.000 A 
BRANCH  34  41
ATOM     35  O   UNL     1      -0.724   4.006   0.475  0.00  0.00    +0.000 OA
ATOM     36  N   UNL     1       1.418   3.230   0.867  0.00  0.00    +0.000 N 
ATOM     37  N   UNL     1       3.043   4.288   2.211  0.00  0.00    +0.000 NA
ATOM     38  N   UNL     1       0.910   4.966   2.507  0.00  0.00    +0.000 NA
ATOM     39  N   UNL     1       2.905   5.303   3.082  0.00  0.00    +0.000 N 
ATOM     40  N   UNL     1       1.654   5.705   3.320  0.00  0.00    +0.000 NA
ATOM     41  C   UNL     1       0.182   3.209   0.266  0.00  0.00    +0.000 C 
ATOM     42  C   UNL     1       1.768   4.138   1.834  0.00  0.00    +0.000 A 
ATOM     43  H   UNL     1       2.187   2.678   0.532  0.00  0.00    +0.000 HD
ATOM     44  H   UNL     1       3.701   5.757   3.521  0.00  0.00    +0.000 HD
ENDBRANCH  34  41
ENDBRANCH  28  29
ENDBRANCH   2  28
TORSDOF 7
ENDMDL
MODEL 12
REMARK VINA RESULT:     0.005      4.791      9.969
REMARK INTER + INTRA:          -2.322
REMARK INTER:                   0.000
REMARK INTRA:                  -2.322
REMARK UNBOUND:                -2.329
REMARK  Name = 23549991
REMARK  8 active torsions:
REMARK  status: ('A' for Active; 'I' for Inactive)
REMARK    1  A    between atoms: S_1  and  C_35
REMARK    2  A    between atoms: S_1  and  C_40
REMARK    3  A    between atoms: N_6  and  C_24
REMARK    4  A    between atoms: N_6  and  C_25
REMARK    5  A    between atoms: N_7  and  C_30
REMARK    6  A    between atoms: C_13  and  C_19
REMARK    7  A    between atoms: C_25  and  C_27
REMARK    8  A    between atoms: C_33  and  C_39
REMARK                            x       y       z     vdW  Elec       q    Type
REMARK                         _______ _______ _______ _____ _____    ______ ____
ROOT
ATOM      1  O   UNL     1      -4.042  -1.281   2.556  0.00  0.00    +0.000 OA
ATOM      2  N   UNL     1      -3.183  -1.744   0.415  0.00  0.00    +0.000 N 
ATOM      3  N   UNL     1      -5.368  -0.870   0.738  0.00  0.00    +0.000 N 
ATOM      4  C   UNL     1      -4.196  -1.332   1.332  0.00  0.00    +0.000 C 
ATOM      5  H   UNL     1      -5.314  -0.666  -0.247  0.00  0.00    +0.000 HD
ENDROOT
BRANCH   3   6
ATOM      6  C   UNL     1      -6.448  -0.217   1.398  0.00  0.00    +0.000 A 
ATOM      7  C   UNL     1      -6.522   1.155   1.676  0.00  0.00    +0.000 A 
ATOM      8  C   UNL     1      -7.706   1.692   2.214  0.00  0.00    +0.000 A 
ATOM      9  C   UNL     1      -7.528  -1.039   1.759  0.00  0.00    +0.000 A 
ATOM     10  C   UNL     1      -8.815   0.876   2.458  0.00  0.00    +0.000 A 
ATOM     11  C   UNL     1      -8.715  -0.494   2.256  0.00  0.00    +0.000 A 
BRANCH   8  12
ATOM     12  S   UNL     1      -7.804   3.397   2.718  0.00  0.00    +0.000 S 
ATOM     13  O   UNL     1      -8.297   3.400   4.082  0.00  0.00    +0.000 OA
ATOM     14  O   UNL     1      -8.524   4.114   1.675  0.00  0.00    +0.000 OA
ATOM     15  C   UNL     1      -6.157   4.029   2.718  0.00  0.00    +0.000 C 
ENDBRANCH   8  12
ENDBRANCH   3   6
BRANCH   2  21
ATOM     16  C   UNL     1       0.909  -2.667   1.424  0.00  0.00    +0.000 A 
ATOM     17  C   UNL     1       0.453  -1.344   1.426  0.00  0.00    +0.000 A 
ATOM     18  C   UNL     1      -0.038  -3.676   1.256  0.00  0.00    +0.000 A 
ATOM     19  C   UNL     1      -0.890  -1.036   1.146  0.00  0.00    +0.000 A 
ATOM     20  C   UNL     1      -1.379  -3.362   0.995  0.00  0.00    +0.000 A 
ATOM     21  C   UNL     1      -1.827  -2.037   0.861  0.00  0.00    +0.000 A 
BRANCH  16  22
ATOM     22  C   UNL     1       2.387  -3.017   1.498  0.00  0.00    +0.000 C 
ATOM     23  C   UNL     1       3.276  -1.799   1.793  0.00  0.00    +0.000 C 
ATOM     24  C   UNL     1       2.821  -3.746   0.210  0.00  0.00    +0.000 C 
ATOM     25  C   UNL     1       4.760  -2.167   1.770  0.00  0.00    +0.000 C 
ATOM     26  C   UNL     1       4.314  -4.053   0.172  0.00  0.00    +0.000 C 
ATOM     27  C   UNL     1       5.148  -2.805   0.440  0.00  0.00    +0.000 C 
ENDBRANCH  16  22
ENDBRANCH   2  21
BRANCH   2  28
ATOM     28  C   UNL     1      -3.438  -1.934  -1.029  0.00  0.00    +0.000 C 
BRANCH  28  29
ATOM     29  C   UNL     1      -2.347  -1.467  -1.983  0.00  0.00    +0.000 A 
ATOM     30  C   UNL     1      -2.207  -0.087  -2.209  0.00  0.00    +0.000 A 
ATOM     31  C   UNL     1      -1.429  -2.333  -2.597  0.00  0.00    +0.000 A 
ATOM     32  C   UNL     1      -1.142   0.414  -2.962  0.00  0.00    +0.000 A 
ATOM     33  C   UNL     1      -0.344  -1.829  -3.336  0.00  0.00    +0.000 A 
ATOM     34  C   UNL     1      -0.176  -0.449  -3.492  0.00  0.00    +0.000 A 
BRANCH  34  41
ATOM     35  O   UNL     1       0.948   1.284  -4.581  0.00  0.00    +0.000 OA
ATOM     36  N   UNL     1       2.197  -0.592  -4.068  0.00  0.00    +0.000 N 
ATOM     37  N   UNL     1       4.423  -0.992  -4.739  0.00  0.00    +0.000 NA
ATOM     38  N   UNL     1       3.706   1.143  -4.888  0.00  0.00    +0.000 NA
ATOM     39  N   UNL     1       5.320  -0.147  -5.280  0.00  0.00    +0.000 N 
ATOM     40  N   UNL     1       4.952   1.134  -5.344  0.00  0.00    +0.000 NA
ATOM     41  C   UNL     1       1.050   0.166  -4.093  0.00  0.00    +0.000 C 
ATOM     42  C   UNL     1       3.402  -0.148  -4.552  0.00  0.00    +0.000 A 
ATOM     43  H   UNL     1       2.190  -1.568  -3.830  0.00  0.00    +0.000 HD
ATOM     44  H   UNL     1       6.217  -0.462  -5.639  0.00  0.00    +0.000 HD
ENDBRANCH  34  41
ENDBRANCH  28  29
ENDBRANCH   2  28
TORSDOF 7
ENDMDL
MODEL 13
REMARK VINA RESULT:     0.006      4.585      6.104
REMARK INTER + INTRA:          -2.321
REMARK INTER:                   0.000
REMARK INTRA:                  -2.321
REMARK UNBOUND:                -2.329
REMARK  Name = 23549991
REMARK  8 active torsions:
REMARK  status: ('A' for Active; 'I' for Inactive)
REMARK    1  A    between atoms: S_1  and  C_35
REMARK    2  A    between atoms: S_1  and  C_40
REMARK    3  A    between atoms: N_6  and  C_24
REMARK    4  A    between atoms: N_6  and  C_25
REMARK    5  A    between atoms: N_7  and  C_30
REMARK    6  A    between atoms: C_13  and  C_19
REMARK    7  A    between atoms: C_25  and  C_27
REMARK    8  A    between atoms: C_33  and  C_39
REMARK                            x       y       z     vdW  Elec       q    Type
REMARK                         _______ _______ _______ _____ _____    ______ ____
ROOT
ATOM      1  O   UNL     1       0.568   2.648  -0.780  0.00  0.00    +0.000 OA
ATOM      2  N   UNL     1      -0.100   1.076  -2.399  0.00  0.00    +0.000 N 
ATOM      3  N   UNL     1       2.033   0.988  -1.355  0.00  0.00    +0.000 N 
ATOM      4  C   UNL     1       0.825   1.669  -1.487  0.00  0.00    +0.000 C 
ATOM      5  H   UNL     1       2.057   0.054  -1.731  0.00  0.00    +0.000 HD
ENDROOT
BRANCH   3   6
ATOM      6  C   UNL     1       3.040   1.238  -0.380  0.00  0.00    +0.000 A 
ATOM      7  C   UNL     1       3.064   0.711   0.918  0.00  0.00    +0.000 A 
ATOM      8  C   UNL     1       4.188   0.930   1.736  0.00  0.00    +0.000 A 
ATOM      9  C   UNL     1       4.101   2.059  -0.796  0.00  0.00    +0.000 A 
ATOM     10  C   UNL     1       5.288   1.652   1.263  0.00  0.00    +0.000 A 
ATOM     11  C   UNL     1       5.230   2.240   0.006  0.00  0.00    +0.000 A 
BRANCH   8  12
ATOM     12  S   UNL     1       4.211   0.406   3.438  0.00  0.00    +0.000 S 
ATOM     13  O   UNL     1       4.927  -0.855   3.475  0.00  0.00    +0.000 OA
ATOM     14  O   UNL     1       2.845   0.490   3.933  0.00  0.00    +0.000 OA
ATOM     15  C   UNL     1       5.146   1.605   4.333  0.00  0.00    +0.000 C 
ENDBRANCH   8  12
ENDBRANCH   3   6
BRANCH   2  21
ATOM     16  C   UNL     1      -4.241   2.186  -2.872  0.00  0.00    +0.000 A 
ATOM     17  C   UNL     1      -3.816   1.478  -1.742  0.00  0.00    +0.000 A 
ATOM     18  C   UNL     1      -3.263   2.664  -3.741  0.00  0.00    +0.000 A 
ATOM     19  C   UNL     1      -2.460   1.153  -1.555  0.00  0.00    +0.000 A 
ATOM     20  C   UNL     1      -1.912   2.352  -3.539  0.00  0.00    +0.000 A 
ATOM     21  C   UNL     1      -1.482   1.529  -2.483  0.00  0.00    +0.000 A 
BRANCH  16  22
ATOM     22  C   UNL     1      -5.713   2.356  -3.216  0.00  0.00    +0.000 C 
ATOM     23  C   UNL     1      -6.647   1.960  -2.063  0.00  0.00    +0.000 C 
ATOM     24  C   UNL     1      -6.042   1.586  -4.512  0.00  0.00    +0.000 C 
ATOM     25  C   UNL     1      -8.118   2.054  -2.472  0.00  0.00    +0.000 C 
ATOM     26  C   UNL     1      -7.522   1.636  -4.876  0.00  0.00    +0.000 C 
ATOM     27  C   UNL     1      -8.400   1.205  -3.707  0.00  0.00    +0.000 C 
ENDBRANCH  16  22
ENDBRANCH   2  21
BRANCH   2  28
ATOM     28  C   UNL     1       0.280  -0.003  -3.336  0.00  0.00    +0.000 C 
BRANCH  28  29
ATOM     29  C   UNL     1      -0.728  -1.128  -3.528  0.00  0.00    +0.000 A 
ATOM     30  C   UNL     1      -0.854  -2.089  -2.509  0.00  0.00    +0.000 A 
ATOM     31  C   UNL     1      -1.588  -1.222  -4.633  0.00  0.00    +0.000 A 
ATOM     32  C   UNL     1      -1.853  -3.064  -2.559  0.00  0.00    +0.000 A 
ATOM     33  C   UNL     1      -2.609  -2.189  -4.674  0.00  0.00    +0.000 A 
ATOM     34  C   UNL     1      -2.768  -3.093  -3.618  0.00  0.00    +0.000 A 
BRANCH  34  41
ATOM     35  O   UNL     1      -3.777  -5.073  -2.904  0.00  0.00    +0.000 OA
ATOM     36  N   UNL     1      -5.113  -3.607  -4.089  0.00  0.00    +0.000 N 
ATOM     37  N   UNL     1      -7.314  -4.031  -4.823  0.00  0.00    +0.000 NA
ATOM     38  N   UNL     1      -6.520  -5.398  -3.212  0.00  0.00    +0.000 NA
ATOM     39  N   UNL     1      -8.155  -5.025  -4.482  0.00  0.00    +0.000 N 
ATOM     40  N   UNL     1      -7.741  -5.830  -3.500  0.00  0.00    +0.000 NA
ATOM     41  C   UNL     1      -3.941  -4.016  -3.498  0.00  0.00    +0.000 C 
ATOM     42  C   UNL     1      -6.276  -4.331  -4.035  0.00  0.00    +0.000 A 
ATOM     43  H   UNL     1      -5.150  -2.826  -4.721  0.00  0.00    +0.000 HD
ATOM     44  H   UNL     1      -9.042  -5.174  -4.953  0.00  0.00    +0.000 HD
ENDBRANCH  34  41
ENDBRANCH  28  29
ENDBRANCH   2  28
TORSDOF 7
ENDMDL
MODEL 14
REMARK VINA RESULT:     0.006      3.855     10.381
REMARK INTER + INTRA:          -2.320
REMARK INTER:                   0.000
REMARK INTRA:                  -2.320
REMARK UNBOUND:                -2.329
REMARK  Name = 23549991
REMARK  8 active torsions:
REMARK  status: ('A' for Active; 'I' for Inactive)
REMARK    1  A    between atoms: S_1  and  C_35
REMARK    2  A    between atoms: S_1  and  C_40
REMARK    3  A    between atoms: N_6  and  C_24
REMARK    4  A    between atoms: N_6  and  C_25
REMARK    5  A    between atoms: N_7  and  C_30
REMARK    6  A    between atoms: C_13  and  C_19
REMARK    7  A    between atoms: C_25  and  C_27
REMARK    8  A    between atoms: C_33  and  C_39
REMARK                            x       y       z     vdW  Elec       q    Type
REMARK                         _______ _______ _______ _____ _____    ______ ____
ROOT
ATOM      1  O   UNL     1      -3.685   5.663  -0.318  0.00  0.00    +0.000 OA
ATOM      2  N   UNL     1      -3.106   4.174   1.410  0.00  0.00    +0.000 N 
ATOM      3  N   UNL     1      -5.245   4.140   0.376  0.00  0.00    +0.000 N 
ATOM      4  C   UNL     1      -3.997   4.754   0.458  0.00  0.00    +0.000 C 
ATOM      5  H   UNL     1      -5.323   3.239   0.818  0.00  0.00    +0.000 HD
ENDROOT
BRANCH   3   6
ATOM      6  C   UNL     1      -6.240   4.379  -0.614  0.00  0.00    +0.000 A 
ATOM      7  C   UNL     1      -6.301   3.764  -1.872  0.00  0.00    +0.000 A 
ATOM      8  C   UNL     1      -7.413   3.990  -2.703  0.00  0.00    +0.000 A 
ATOM      9  C   UNL     1      -7.249   5.289  -0.258  0.00  0.00    +0.000 A 
ATOM     10  C   UNL     1      -8.466   4.809  -2.282  0.00  0.00    +0.000 A 
ATOM     11  C   UNL     1      -8.369   5.479  -1.070  0.00  0.00    +0.000 A 
BRANCH   8  12
ATOM     12  S   UNL     1      -7.475   3.349  -4.364  0.00  0.00    +0.000 S 
ATOM     13  O   UNL     1      -8.122   4.361  -5.176  0.00  0.00    +0.000 OA
ATOM     14  O   UNL     1      -8.026   2.004  -4.286  0.00  0.00    +0.000 OA
ATOM     15  C   UNL     1      -5.806   3.178  -4.911  0.00  0.00    +0.000 C 
ENDBRANCH   8  12
ENDBRANCH   3   6
BRANCH   2  21
ATOM     16  C   UNL     1       1.097   5.062   1.798  0.00  0.00    +0.000 A 
ATOM     17  C   UNL     1       0.623   4.307   0.719  0.00  0.00    +0.000 A 
ATOM     18  C   UNL     1       0.155   5.654   2.635  0.00  0.00    +0.000 A 
ATOM     19  C   UNL     1      -0.751   4.053   0.557  0.00  0.00    +0.000 A 
ATOM     20  C   UNL     1      -1.214   5.412   2.457  0.00  0.00    +0.000 A 
ATOM     21  C   UNL     1      -1.699   4.548   1.460  0.00  0.00    +0.000 A 
BRANCH  16  22
ATOM     22  C   UNL     1       2.579   5.165   2.127  0.00  0.00    +0.000 C 
ATOM     23  C   UNL     1       3.469   4.417   1.123  0.00  0.00    +0.000 C 
ATOM     24  C   UNL     1       2.829   4.699   3.576  0.00  0.00    +0.000 C 
ATOM     25  C   UNL     1       4.941   4.463   1.533  0.00  0.00    +0.000 C 
ATOM     26  C   UNL     1       4.308   4.691   3.953  0.00  0.00    +0.000 C 
ATOM     27  C   UNL     1       5.138   3.910   2.941  0.00  0.00    +0.000 C 
ENDBRANCH  16  22
ENDBRANCH   2  21
BRANCH   2  28
ATOM     28  C   UNL     1      -3.545   3.190   2.423  0.00  0.00    +0.000 C 
BRANCH  28  29
ATOM     29  C   UNL     1      -2.617   2.010   2.677  0.00  0.00    +0.000 A 
ATOM     30  C   UNL     1      -2.565   0.987   1.715  0.00  0.00    +0.000 A 
ATOM     31  C   UNL     1      -1.760   1.920   3.785  0.00  0.00    +0.000 A 
ATOM     32  C   UNL     1      -1.636  -0.052   1.819  0.00  0.00    +0.000 A 
ATOM     33  C   UNL     1      -0.810   0.888   3.879  0.00  0.00    +0.000 A 
ATOM     34  C   UNL     1      -0.719  -0.084   2.877  0.00  0.00    +0.000 A 
BRANCH  34  41
ATOM     35  O   UNL     1       0.123  -2.198   2.353  0.00  0.00    +0.000 OA
ATOM     36  N   UNL     1       1.612  -0.699   3.288  0.00  0.00    +0.000 N 
ATOM     37  N   UNL     1       3.822  -1.185   3.956  0.00  0.00    +0.000 NA
ATOM     38  N   UNL     1       2.853  -2.671   2.559  0.00  0.00    +0.000 NA
ATOM     39  N   UNL     1       4.578  -2.266   3.693  0.00  0.00    +0.000 N 
ATOM     40  N   UNL     1       4.060  -3.149   2.835  0.00  0.00    +0.000 NA
ATOM     41  C   UNL     1       0.386  -1.093   2.809  0.00  0.00    +0.000 C 
ATOM     42  C   UNL     1       2.724  -1.503   3.261  0.00  0.00    +0.000 A 
ATOM     43  H   UNL     1       1.734   0.144   3.821  0.00  0.00    +0.000 HD
ATOM     44  H   UNL     1       5.481  -2.420   4.133  0.00  0.00    +0.000 HD
ENDBRANCH  34  41
ENDBRANCH  28  29
ENDBRANCH   2  28
TORSDOF 7
ENDMDL
MODEL 15
REMARK VINA RESULT:     0.006      4.471     10.417
REMARK INTER + INTRA:          -2.320
REMARK INTER:                   0.000
REMARK INTRA:                  -2.320
REMARK UNBOUND:                -2.329
REMARK  Name = 23549991
REMARK  8 active torsions:
REMARK  status: ('A' for Active; 'I' for Inactive)
REMARK    1  A    between atoms: S_1  and  C_35
REMARK    2  A    between atoms: S_1  and  C_40
REMARK    3  A    between atoms: N_6  and  C_24
REMARK    4  A    between atoms: N_6  and  C_25
REMARK    5  A    between atoms: N_7  and  C_30
REMARK    6  A    between atoms: C_13  and  C_19
REMARK    7  A    between atoms: C_25  and  C_27
REMARK    8  A    between atoms: C_33  and  C_39
REMARK                            x       y       z     vdW  Elec       q    Type
REMARK                         _______ _______ _______ _____ _____    ______ ____
ROOT
ATOM      1  O   UNL     1      -3.727   2.233   0.868  0.00  0.00    +0.000 OA
ATOM      2  N   UNL     1      -3.068  -0.023   0.758  0.00  0.00    +0.000 N 
ATOM      3  N   UNL     1      -5.179   0.717  -0.041  0.00  0.00    +0.000 N 
ATOM      4  C   UNL     1      -3.983   1.059   0.587  0.00  0.00    +0.000 C 
ATOM      5  H   UNL     1      -5.196  -0.179  -0.501  0.00  0.00    +0.000 HD
ENDROOT
BRANCH   3   6
ATOM      6  C   UNL     1      -6.171   1.622  -0.515  0.00  0.00    +0.000 A 
ATOM      7  C   UNL     1      -6.163   2.258  -1.764  0.00  0.00    +0.000 A 
ATOM      8  C   UNL     1      -7.274   3.024  -2.161  0.00  0.00    +0.000 A 
ATOM      9  C   UNL     1      -7.253   1.850   0.352  0.00  0.00    +0.000 A 
ATOM     10  C   UNL     1      -8.394   3.144  -1.331  0.00  0.00    +0.000 A 
ATOM     11  C   UNL     1      -8.369   2.579  -0.063  0.00  0.00    +0.000 A 
BRANCH   8  12
ATOM     12  S   UNL     1      -7.257   3.967  -3.671  0.00  0.00    +0.000 S 
ATOM     13  O   UNL     1      -7.769   5.285  -3.344  0.00  0.00    +0.000 OA
ATOM     14  O   UNL     1      -7.908   3.159  -4.692  0.00  0.00    +0.000 OA
ATOM     15  C   UNL     1      -5.569   4.129  -4.158  0.00  0.00    +0.000 C 
ENDBRANCH   8  12
ENDBRANCH   3   6
BRANCH   2  21
ATOM     16  C   UNL     1       1.049   0.329   1.998  0.00  0.00    +0.000 A 
ATOM     17  C   UNL     1       0.652   0.729   0.718  0.00  0.00    +0.000 A 
ATOM     18  C   UNL     1       0.050  -0.019   2.905  0.00  0.00    +0.000 A 
ATOM     19  C   UNL     1      -0.696   0.664   0.320  0.00  0.00    +0.000 A 
ATOM     20  C   UNL     1      -1.293  -0.064   2.507  0.00  0.00    +0.000 A 
ATOM     21  C   UNL     1      -1.694   0.205   1.187  0.00  0.00    +0.000 A 
BRANCH  16  22
ATOM     22  C   UNL     1       2.512   0.175   2.383  0.00  0.00    +0.000 C 
ATOM     23  C   UNL     1       3.425  -0.086   1.175  0.00  0.00    +0.000 C 
ATOM     24  C   UNL     1       2.660  -0.919   3.461  0.00  0.00    +0.000 C 
ATOM     25  C   UNL     1       4.872  -0.329   1.605  0.00  0.00    +0.000 C 
ATOM     26  C   UNL     1       4.112  -1.195   3.837  0.00  0.00    +0.000 C 
ATOM     27  C   UNL     1       4.964  -1.477   2.605  0.00  0.00    +0.000 C 
ENDBRANCH  16  22
ENDBRANCH   2  21
BRANCH   2  28
ATOM     28  C   UNL     1      -3.449  -1.436   0.549  0.00  0.00    +0.000 C 
BRANCH  28  29
ATOM     29  C   UNL     1      -2.430  -2.322  -0.156  0.00  0.00    +0.000 A 
ATOM     30  C   UNL     1      -2.249  -2.155  -1.540  0.00  0.00    +0.000 A 
ATOM     31  C   UNL     1      -1.612  -3.248   0.510  0.00  0.00    +0.000 A 
ATOM     32  C   UNL     1      -1.236  -2.836  -2.220  0.00  0.00    +0.000 A 
ATOM     33  C   UNL     1      -0.578  -3.917  -0.169  0.00  0.00    +0.000 A 
ATOM     34  C   UNL     1      -0.363  -3.686  -1.532  0.00  0.00    +0.000 A 
BRANCH  34  41
ATOM     35  O   UNL     1       0.736  -4.333  -3.488  0.00  0.00    +0.000 OA
ATOM     36  N   UNL     1       1.936  -4.524  -1.522  0.00  0.00    +0.000 N 
ATOM     37  N   UNL     1       4.066  -5.512  -1.297  0.00  0.00    +0.000 NA
ATOM     38  N   UNL     1       3.443  -4.954  -3.393  0.00  0.00    +0.000 NA
ATOM     39  N   UNL     1       4.948  -5.873  -2.246  0.00  0.00    +0.000 N 
ATOM     40  N   UNL     1       4.638  -5.521  -3.497  0.00  0.00    +0.000 NA
ATOM     41  C   UNL     1       0.829  -4.207  -2.274  0.00  0.00    +0.000 C 
ATOM     42  C   UNL     1       3.109  -4.980  -2.066  0.00  0.00    +0.000 A 
ATOM     43  H   UNL     1       1.903  -4.582  -0.520  0.00  0.00    +0.000 HD
ATOM     44  H   UNL     1       5.790  -6.400  -2.035  0.00  0.00    +0.000 HD
ENDBRANCH  34  41
ENDBRANCH  28  29
ENDBRANCH   2  28
TORSDOF 7
ENDMDL
MODEL 16
REMARK VINA RESULT:     0.008      4.213      9.942
REMARK INTER + INTRA:          -2.318
REMARK INTER:                   0.000
REMARK INTRA:                  -2.318
REMARK UNBOUND:                -2.329
REMARK  Name = 23549991
REMARK  8 active torsions:
REMARK  status: ('A' for Active; 'I' for Inactive)
REMARK    1  A    between atoms: S_1  and  C_35
REMARK    2  A    between atoms: S_1  and  C_40
REMARK    3  A    between atoms: N_6  and  C_24
REMARK    4  A    between atoms: N_6  and  C_25
REMARK    5  A    between atoms: N_7  and  C_30
REMARK    6  A    between atoms: C_13  and  C_19
REMARK    7  A    between atoms: C_25  and  C_27
REMARK    8  A    between atoms: C_33  and  C_39
REMARK                            x       y       z     vdW  Elec       q    Type
REMARK                         _______ _______ _______ _____ _____    ______ ____
ROOT
ATOM      1  O   UNL     1      -3.930   1.114  -4.220  0.00  0.00    +0.000 OA
ATOM      2  N   UNL     1      -3.232   2.191  -2.247  0.00  0.00    +0.000 N 
ATOM      3  N   UNL     1      -5.268   0.973  -2.370  0.00  0.00    +0.000 N 
ATOM      4  C   UNL     1      -4.142   1.436  -3.046  0.00  0.00    +0.000 C 
ATOM      5  H   UNL     1      -5.230   1.020  -1.364  0.00  0.00    +0.000 HD
ENDROOT
BRANCH   3   6
ATOM      6  C   UNL     1      -6.224   0.039  -2.862  0.00  0.00    +0.000 A 
ATOM      7  C   UNL     1      -6.109  -1.356  -2.792  0.00  0.00    +0.000 A 
ATOM      8  C   UNL     1      -7.188  -2.163  -3.196  0.00  0.00    +0.000 A 
ATOM      9  C   UNL     1      -7.383   0.594  -3.429  0.00  0.00    +0.000 A 
ATOM     10  C   UNL     1      -8.381  -1.590  -3.649  0.00  0.00    +0.000 A 
ATOM     11  C   UNL     1      -8.466  -0.211  -3.791  0.00  0.00    +0.000 A 
BRANCH   8  12
ATOM     12  S   UNL     1      -7.044  -3.937  -3.263  0.00  0.00    +0.000 S 
ATOM     13  O   UNL     1      -7.440  -4.436  -1.960  0.00  0.00    +0.000 OA
ATOM     14  O   UNL     1      -5.725  -4.242  -3.798  0.00  0.00    +0.000 OA
ATOM     15  C   UNL     1      -8.214  -4.504  -4.457  0.00  0.00    +0.000 C 
ENDBRANCH   8  12
ENDBRANCH   3   6
BRANCH   2  21
ATOM     16  C   UNL     1       0.743   3.398  -3.409  0.00  0.00    +0.000 A 
ATOM     17  C   UNL     1       0.466   2.065  -3.091  0.00  0.00    +0.000 A 
ATOM     18  C   UNL     1      -0.335   4.277  -3.505  0.00  0.00    +0.000 A 
ATOM     19  C   UNL     1      -0.837   1.651  -2.757  0.00  0.00    +0.000 A 
ATOM     20  C   UNL     1      -1.633   3.854  -3.189  0.00  0.00    +0.000 A 
ATOM     21  C   UNL     1      -1.908   2.551  -2.737  0.00  0.00    +0.000 A 
BRANCH  16  22
ATOM     22  C   UNL     1       2.164   3.921  -3.552  0.00  0.00    +0.000 C 
ATOM     23  C   UNL     1       3.227   2.846  -3.279  0.00  0.00    +0.000 C 
ATOM     24  C   UNL     1       2.360   5.163  -2.658  0.00  0.00    +0.000 C 
ATOM     25  C   UNL     1       4.641   3.425  -3.340  0.00  0.00    +0.000 C 
ATOM     26  C   UNL     1       3.790   5.694  -2.680  0.00  0.00    +0.000 C 
ATOM     27  C   UNL     1       4.799   4.594  -2.373  0.00  0.00    +0.000 C 
ENDBRANCH  16  22
ENDBRANCH   2  21
BRANCH   2  28
ATOM     28  C   UNL     1      -3.572   2.684  -0.895  0.00  0.00    +0.000 C 
BRANCH  28  29
ATOM     29  C   UNL     1      -2.476   2.604   0.158  0.00  0.00    +0.000 A 
ATOM     30  C   UNL     1      -2.175   1.346   0.709  0.00  0.00    +0.000 A 
ATOM     31  C   UNL     1      -1.701   3.703   0.560  0.00  0.00    +0.000 A 
ATOM     32  C   UNL     1      -1.091   1.181   1.575  0.00  0.00    +0.000 A 
ATOM     33  C   UNL     1      -0.596   3.534   1.414  0.00  0.00    +0.000 A 
ATOM     34  C   UNL     1      -0.264   2.264   1.897  0.00  0.00    +0.000 A 
BRANCH  34  41
ATOM     35  O   UNL     1       1.026   0.984   3.363  0.00  0.00    +0.000 OA
ATOM     36  N   UNL     1       2.034   2.867   2.480  0.00  0.00    +0.000 N 
ATOM     37  N   UNL     1       4.146   3.718   3.095  0.00  0.00    +0.000 NA
ATOM     38  N   UNL     1       3.719   1.583   3.691  0.00  0.00    +0.000 NA
ATOM     39  N   UNL     1       5.120   3.147   3.827  0.00  0.00    +0.000 N 
ATOM     40  N   UNL     1       4.926   1.869   4.162  0.00  0.00    +0.000 NA
ATOM     41  C   UNL     1       1.001   1.975   2.645  0.00  0.00    +0.000 C 
ATOM     42  C   UNL     1       3.260   2.716   3.075  0.00  0.00    +0.000 A 
ATOM     43  H   UNL     1       1.906   3.758   2.033  0.00  0.00    +0.000 HD
ATOM     44  H   UNL     1       5.945   3.657   4.128  0.00  0.00    +0.000 HD
ENDBRANCH  34  41
ENDBRANCH  28  29
ENDBRANCH   2  28
TORSDOF 7
ENDMDL
MODEL 17
REMARK VINA RESULT:     0.010      3.428      5.910
REMARK INTER + INTRA:          -2.315
REMARK INTER:                   0.000
REMARK INTRA:                  -2.315
REMARK UNBOUND:                -2.329
REMARK  Name = 23549991
REMARK  8 active torsions:
REMARK  status: ('A' for Active; 'I' for Inactive)
REMARK    1  A    between atoms: S_1  and  C_35
REMARK    2  A    between atoms: S_1  and  C_40
REMARK    3  A    between atoms: N_6  and  C_24
REMARK    4  A    between atoms: N_6  and  C_25
REMARK    5  A    between atoms: N_7  and  C_30
REMARK    6  A    between atoms: C_13  and  C_19
REMARK    7  A    between atoms: C_25  and  C_27
REMARK    8  A    between atoms: C_33  and  C_39
REMARK                            x       y       z     vdW  Elec       q    Type
REMARK                         _______ _______ _______ _____ _____    ______ ____
ROOT
ATOM      1  O   UNL     1       0.033  -2.259  -1.500  0.00  0.00    +0.000 OA
ATOM      2  N   UNL     1      -2.150  -2.212  -0.623  0.00  0.00    +0.000 N 
ATOM      3  N   UNL     1      -0.321  -3.131   0.585  0.00  0.00    +0.000 N 
ATOM      4  C   UNL     1      -0.762  -2.545  -0.600  0.00  0.00    +0.000 C 
ATOM      5  H   UNL     1      -0.948  -3.065   1.370  0.00  0.00    +0.000 HD
ENDROOT
BRANCH   3   6
ATOM      6  C   UNL     1       1.032  -3.375   0.953  0.00  0.00    +0.000 A 
ATOM      7  C   UNL     1       1.888  -2.450   1.567  0.00  0.00    +0.000 A 
ATOM      8  C   UNL     1       3.161  -2.863   2.000  0.00  0.00    +0.000 A 
ATOM      9  C   UNL     1       1.510  -4.671   0.695  0.00  0.00    +0.000 A 
ATOM     10  C   UNL     1       3.576  -4.189   1.840  0.00  0.00    +0.000 A 
ATOM     11  C   UNL     1       2.760  -5.084   1.163  0.00  0.00    +0.000 A 
BRANCH   8  12
ATOM     12  S   UNL     1       4.339  -1.699   2.655  0.00  0.00    +0.000 S 
ATOM     13  O   UNL     1       5.233  -1.355   1.565  0.00  0.00    +0.000 OA
ATOM     14  O   UNL     1       4.866  -2.266   3.887  0.00  0.00    +0.000 OA
ATOM     15  C   UNL     1       3.435  -0.254   3.111  0.00  0.00    +0.000 C 
ENDBRANCH   8  12
ENDBRANCH   3   6
BRANCH   2  21
ATOM     16  C   UNL     1      -4.118   0.193  -3.614  0.00  0.00    +0.000 A 
ATOM     17  C   UNL     1      -3.250   0.777  -2.687  0.00  0.00    +0.000 A 
ATOM     18  C   UNL     1      -4.188  -1.198  -3.647  0.00  0.00    +0.000 A 
ATOM     19  C   UNL     1      -2.566  -0.004  -1.737  0.00  0.00    +0.000 A 
ATOM     20  C   UNL     1      -3.490  -1.972  -2.710  0.00  0.00    +0.000 A 
ATOM     21  C   UNL     1      -2.718  -1.394  -1.686  0.00  0.00    +0.000 A 
BRANCH  16  22
ATOM     22  C   UNL     1      -5.039   1.021  -4.498  0.00  0.00    +0.000 C 
ATOM     23  C   UNL     1      -4.954   2.526  -4.206  0.00  0.00    +0.000 C 
ATOM     24  C   UNL     1      -6.485   0.495  -4.390  0.00  0.00    +0.000 C 
ATOM     25  C   UNL     1      -5.956   3.320  -5.045  0.00  0.00    +0.000 C 
ATOM     26  C   UNL     1      -7.485   1.331  -5.182  0.00  0.00    +0.000 C 
ATOM     27  C   UNL     1      -7.378   2.811  -4.831  0.00  0.00    +0.000 C 
ENDBRANCH  16  22
ENDBRANCH   2  21
BRANCH   2  28
ATOM     28  C   UNL     1      -3.106  -2.692   0.399  0.00  0.00    +0.000 C 
BRANCH  28  29
ATOM     29  C   UNL     1      -4.119  -1.680   0.916  0.00  0.00    +0.000 A 
ATOM     30  C   UNL     1      -3.667  -0.669   1.782  0.00  0.00    +0.000 A 
ATOM     31  C   UNL     1      -5.466  -1.657   0.521  0.00  0.00    +0.000 A 
ATOM     32  C   UNL     1      -4.514   0.368   2.181  0.00  0.00    +0.000 A 
ATOM     33  C   UNL     1      -6.313  -0.602   0.904  0.00  0.00    +0.000 A 
ATOM     34  C   UNL     1      -5.830   0.436   1.707  0.00  0.00    +0.000 A 
BRANCH  34  41
ATOM     35  O   UNL     1      -7.517   1.616   2.808  0.00  0.00    +0.000 OA
ATOM     36  N   UNL     1      -6.247   2.811   1.292  0.00  0.00    +0.000 N 
ATOM     37  N   UNL     1      -6.646   5.032   0.607  0.00  0.00    +0.000 NA
ATOM     38  N   UNL     1      -7.682   4.372   2.500  0.00  0.00    +0.000 NA
ATOM     39  N   UNL     1      -7.470   5.956   1.133  0.00  0.00    +0.000 N 
ATOM     40  N   UNL     1      -8.069   5.622   2.279  0.00  0.00    +0.000 NA
ATOM     41  C   UNL     1      -6.607   1.684   1.992  0.00  0.00    +0.000 C 
ATOM     42  C   UNL     1      -6.846   4.031   1.471  0.00  0.00    +0.000 A 
ATOM     43  H   UNL     1      -5.625   2.776   0.504  0.00  0.00    +0.000 HD
ATOM     44  H   UNL     1      -7.648   6.848   0.681  0.00  0.00    +0.000 HD
ENDBRANCH  34  41
ENDBRANCH  28  29
ENDBRANCH   2  28
TORSDOF 7
ENDMDL
MODEL 18
REMARK VINA RESULT:     0.011      4.724     10.174
REMARK INTER + INTRA:          -2.314
REMARK INTER:                   0.000
REMARK INTRA:                  -2.314
REMARK UNBOUND:                -2.329
REMARK  Name = 23549991
REMARK  8 active torsions:
REMARK  status: ('A' for Active; 'I' for Inactive)
REMARK    1  A    between atoms: S_1  and  C_35
REMARK    2  A    between atoms: S_1  and  C_40
REMARK    3  A    between atoms: N_6  and  C_24
REMARK    4  A    between atoms: N_6  and  C_25
REMARK    5  A    between atoms: N_7  and  C_30
REMARK    6  A    between atoms: C_13  and  C_19
REMARK    7  A    between atoms: C_25  and  C_27
REMARK    8  A    between atoms: C_33  and  C_39
REMARK                            x       y       z     vdW  Elec       q    Type
REMARK                         _______ _______ _______ _____ _____    ______ ____
ROOT
ATOM      1  O   UNL     1      -4.405   0.222   4.373  0.00  0.00    +0.000 OA
ATOM      2  N   UNL     1      -3.651  -1.100   2.578  0.00  0.00    +0.000 N 
ATOM      3  N   UNL     1      -5.667   0.153   2.467  0.00  0.00    +0.000 N 
ATOM      4  C   UNL     1      -4.577  -0.239   3.240  0.00  0.00    +0.000 C 
ATOM      5  H   UNL     1      -5.591  -0.019   1.477  0.00  0.00    +0.000 HD
ENDROOT
BRANCH   3   6
ATOM      6  C   UNL     1      -6.623   1.154   2.801  0.00  0.00    +0.000 A 
ATOM      7  C   UNL     1      -6.471   2.529   2.580  0.00  0.00    +0.000 A 
ATOM      8  C   UNL     1      -7.550   3.397   2.834  0.00  0.00    +0.000 A 
ATOM      9  C   UNL     1      -7.821   0.688   3.368  0.00  0.00    +0.000 A 
ATOM     10  C   UNL     1      -8.776   2.900   3.289  0.00  0.00    +0.000 A 
ATOM     11  C   UNL     1      -8.900   1.549   3.582  0.00  0.00    +0.000 A 
BRANCH   8  12
ATOM     12  S   UNL     1      -7.367   5.164   2.707  0.00  0.00    +0.000 S 
ATOM     13  O   UNL     1      -6.063   5.487   3.254  0.00  0.00    +0.000 OA
ATOM     14  O   UNL     1      -8.569   5.763   3.269  0.00  0.00    +0.000 OA
ATOM     15  C   UNL     1      -7.364   5.558   0.987  0.00  0.00    +0.000 C 
ENDBRANCH   8  12
ENDBRANCH   3   6
BRANCH   2  21
ATOM     16  C   UNL     1       0.253  -2.209   4.038  0.00  0.00    +0.000 A 
ATOM     17  C   UNL     1       0.009  -0.916   3.561  0.00  0.00    +0.000 A 
ATOM     18  C   UNL     1      -0.840  -3.060   4.185  0.00  0.00    +0.000 A 
ATOM     19  C   UNL     1      -1.272  -0.530   3.127  0.00  0.00    +0.000 A 
ATOM     20  C   UNL     1      -2.117  -2.662   3.768  0.00  0.00    +0.000 A 
ATOM     21  C   UNL     1      -2.354  -1.416   3.162  0.00  0.00    +0.000 A 
BRANCH  16  22
ATOM     22  C   UNL     1       1.660  -2.725   4.300  0.00  0.00    +0.000 C 
ATOM     23  C   UNL     1       2.737  -1.942   3.536  0.00  0.00    +0.000 C 
ATOM     24  C   UNL     1       1.728  -4.238   4.002  0.00  0.00    +0.000 C 
ATOM     25  C   UNL     1       4.127  -2.543   3.748  0.00  0.00    +0.000 C 
ATOM     26  C   UNL     1       3.132  -4.813   4.157  0.00  0.00    +0.000 C 
ATOM     27  C   UNL     1       4.155  -4.017   3.355  0.00  0.00    +0.000 C 
ENDBRANCH  16  22
ENDBRANCH   2  21
BRANCH   2  28
ATOM     28  C   UNL     1      -3.948  -1.752   1.284  0.00  0.00    +0.000 C 
BRANCH  28  29
ATOM     29  C   UNL     1      -2.821  -1.787   0.261  0.00  0.00    +0.000 A 
ATOM     30  C   UNL     1      -2.488  -0.593  -0.402  0.00  0.00    +0.000 A 
ATOM     31  C   UNL     1      -2.049  -2.929  -0.007  0.00  0.00    +0.000 A 
ATOM     32  C   UNL     1      -1.377  -0.526  -1.246  0.00  0.00    +0.000 A 
ATOM     33  C   UNL     1      -0.918  -2.856  -0.839  0.00  0.00    +0.000 A 
ATOM     34  C   UNL     1      -0.555  -1.644  -1.435  0.00  0.00    +0.000 A 
BRANCH  34  41
ATOM     35  O   UNL     1       0.794  -0.527  -2.978  0.00  0.00    +0.000 OA
ATOM     36  N   UNL     1       1.749  -2.328  -1.889  0.00  0.00    +0.000 N 
ATOM     37  N   UNL     1       3.864  -3.259  -2.358  0.00  0.00    +0.000 NA
ATOM     38  N   UNL     1       3.487  -1.186  -3.168  0.00  0.00    +0.000 NA
ATOM     39  N   UNL     1       4.867  -2.773  -3.112  0.00  0.00    +0.000 N 
ATOM     40  N   UNL     1       4.702  -1.531  -3.574  0.00  0.00    +0.000 NA
ATOM     41  C   UNL     1       0.734  -1.443  -2.170  0.00  0.00    +0.000 C 
ATOM     42  C   UNL     1       2.994  -2.249  -2.460  0.00  0.00    +0.000 A 
ATOM     43  H   UNL     1       1.595  -3.170  -1.364  0.00  0.00    +0.000 HD
ATOM     44  H   UNL     1       5.693  -3.319  -3.338  0.00  0.00    +0.000 HD
ENDBRANCH  34  41
ENDBRANCH  28  29
ENDBRANCH   2  28
TORSDOF 7
ENDMDL
MODEL 19
REMARK VINA RESULT:     0.011      1.985      2.290
REMARK INTER + INTRA:          -2.314
REMARK INTER:                   0.000
REMARK INTRA:                  -2.314
REMARK UNBOUND:                -2.329
REMARK  Name = 23549991
REMARK  8 active torsions:
REMARK  status: ('A' for Active; 'I' for Inactive)
REMARK    1  A    between atoms: S_1  and  C_35
REMARK    2  A    between atoms: S_1  and  C_40
REMARK    3  A    between atoms: N_6  and  C_24
REMARK    4  A    between atoms: N_6  and  C_25
REMARK    5  A    between atoms: N_7  and  C_30
REMARK    6  A    between atoms: C_13  and  C_19
REMARK    7  A    between atoms: C_25  and  C_27
REMARK    8  A    between atoms: C_33  and  C_39
REMARK                            x       y       z     vdW  Elec       q    Type
REMARK                         _______ _______ _______ _____ _____    ______ ____
ROOT
ATOM      1  O   UNL     1       0.660  -0.349   2.104  0.00  0.00    +0.000 OA
ATOM      2  N   UNL     1      -0.148   1.683   1.234  0.00  0.00    +0.000 N 
ATOM      3  N   UNL     1       1.884   0.705   0.485  0.00  0.00    +0.000 N 
ATOM      4  C   UNL     1       0.803   0.626   1.360  0.00  0.00    +0.000 C 
ATOM      5  H   UNL     1       1.786   1.353  -0.280  0.00  0.00    +0.000 HD
ENDROOT
BRANCH   3   6
ATOM      6  C   UNL     1       2.861  -0.305   0.257  0.00  0.00    +0.000 A 
ATOM      7  C   UNL     1       2.737  -1.367  -0.649  0.00  0.00    +0.000 A 
ATOM      8  C   UNL     1       3.833  -2.220  -0.874  0.00  0.00    +0.000 A 
ATOM      9  C   UNL     1       4.051  -0.180   0.993  0.00  0.00    +0.000 A 
ATOM     10  C   UNL     1       5.050  -2.010  -0.218  0.00  0.00    +0.000 A 
ATOM     11  C   UNL     1       5.148  -1.006   0.736  0.00  0.00    +0.000 A 
BRANCH   8  12
ATOM     12  S   UNL     1       3.686  -3.666  -1.903  0.00  0.00    +0.000 S 
ATOM     13  O   UNL     1       2.451  -4.324  -1.521  0.00  0.00    +0.000 OA
ATOM     14  O   UNL     1       4.953  -4.379  -1.829  0.00  0.00    +0.000 OA
ATOM     15  C   UNL     1       3.524  -3.099  -3.567  0.00  0.00    +0.000 C 
ENDBRANCH   8  12
ENDBRANCH   3   6
BRANCH   2  21
ATOM     16  C   UNL     1      -4.037   1.814   3.096  0.00  0.00    +0.000 A 
ATOM     17  C   UNL     1      -3.792   0.966   2.010  0.00  0.00    +0.000 A 
ATOM     18  C   UNL     1      -2.946   2.476   3.656  0.00  0.00    +0.000 A 
ATOM     19  C   UNL     1      -2.516   0.880   1.426  0.00  0.00    +0.000 A 
ATOM     20  C   UNL     1      -1.673   2.371   3.081  0.00  0.00    +0.000 A 
ATOM     21  C   UNL     1      -1.438   1.630   1.910  0.00  0.00    +0.000 A 
BRANCH  16  22
ATOM     22  C   UNL     1      -5.442   2.099   3.603  0.00  0.00    +0.000 C 
ATOM     23  C   UNL     1      -6.492   1.136   3.030  0.00  0.00    +0.000 C 
ATOM     24  C   UNL     1      -5.808   3.574   3.335  0.00  0.00    +0.000 C 
ATOM     25  C   UNL     1      -7.904   1.507   3.486  0.00  0.00    +0.000 C 
ATOM     26  C   UNL     1      -7.239   3.915   3.738  0.00  0.00    +0.000 C 
ATOM     27  C   UNL     1      -8.240   2.948   3.117  0.00  0.00    +0.000 C 
ENDBRANCH  16  22
ENDBRANCH   2  21
BRANCH   2  28
ATOM     28  C   UNL     1       0.115   2.907   0.447  0.00  0.00    +0.000 C 
BRANCH  28  29
ATOM     29  C   UNL     1      -1.057   3.478  -0.341  0.00  0.00    +0.000 A 
ATOM     30  C   UNL     1      -1.443   2.825  -1.524  0.00  0.00    +0.000 A 
ATOM     31  C   UNL     1      -1.816   4.579   0.084  0.00  0.00    +0.000 A 
ATOM     32  C   UNL     1      -2.592   3.213  -2.217  0.00  0.00    +0.000 A 
ATOM     33  C   UNL     1      -2.985   4.957  -0.600  0.00  0.00    +0.000 A 
ATOM     34  C   UNL     1      -3.399   4.252  -1.736  0.00  0.00    +0.000 A 
BRANCH  34  41
ATOM     35  O   UNL     1      -4.914   5.540  -2.958  0.00  0.00    +0.000 OA
ATOM     36  N   UNL     1      -5.636   3.444  -2.306  0.00  0.00    +0.000 N 
ATOM     37  N   UNL     1      -7.819   2.592  -2.573  0.00  0.00    +0.000 NA
ATOM     38  N   UNL     1      -7.293   4.395  -3.825  0.00  0.00    +0.000 NA
ATOM     39  N   UNL     1      -8.841   3.068  -3.307  0.00  0.00    +0.000 N 
ATOM     40  N   UNL     1      -8.560   4.107  -4.096  0.00  0.00    +0.000 NA
ATOM     41  C   UNL     1      -4.724   4.468  -2.399  0.00  0.00    +0.000 C 
ATOM     42  C   UNL     1      -6.876   3.486  -2.890  0.00  0.00    +0.000 A 
ATOM     43  H   UNL     1      -5.507   2.666  -1.683  0.00  0.00    +0.000 HD
ATOM     44  H   UNL     1      -9.778   2.679  -3.253  0.00  0.00    +0.000 HD
ENDBRANCH  34  41
ENDBRANCH  28  29
ENDBRANCH   2  28
TORSDOF 7
ENDMDL
MODEL 20
REMARK VINA RESULT:     0.012      4.757      6.464
REMARK INTER + INTRA:          -2.312
REMARK INTER:                   0.000
REMARK INTRA:                  -2.312
REMARK UNBOUND:                -2.329
REMARK  Name = 23549991
REMARK  8 active torsions:
REMARK  status: ('A' for Active; 'I' for Inactive)
REMARK    1  A    between atoms: S_1  and  C_35
REMARK    2  A    between atoms: S_1  and  C_40
REMARK    3  A    between atoms: N_6  and  C_24
REMARK    4  A    between atoms: N_6  and  C_25
REMARK    5  A    between atoms: N_7  and  C_30
REMARK    6  A    between atoms: C_13  and  C_19
REMARK    7  A    between atoms: C_25  and  C_27
REMARK    8  A    between atoms: C_33  and  C_39
REMARK                            x       y       z     vdW  Elec       q    Type
REMARK                         _______ _______ _______ _____ _____    ______ ____
ROOT
ATOM      1  O   UNL     1      -0.959   3.181   0.289  0.00  0.00    +0.000 OA
ATOM      2  N   UNL     1      -3.060   2.947  -0.744  0.00  0.00    +0.000 N 
ATOM      3  N   UNL     1      -1.166   3.787  -1.907  0.00  0.00    +0.000 N 
ATOM      4  C   UNL     1      -1.685   3.328  -0.699  0.00  0.00    +0.000 C 
ATOM      5  H   UNL     1      -1.724   3.605  -2.725  0.00  0.00    +0.000 HD
ENDROOT
BRANCH   3   6
ATOM      6  C   UNL     1       0.206   4.039  -2.195  0.00  0.00    +0.000 A 
ATOM      7  C   UNL     1       1.134   3.083  -2.631  0.00  0.00    +0.000 A 
ATOM      8  C   UNL     1       2.426   3.492  -3.009  0.00  0.00    +0.000 A 
ATOM      9  C   UNL     1       0.625   5.372  -2.052  0.00  0.00    +0.000 A 
ATOM     10  C   UNL     1       2.789   4.842  -2.971  0.00  0.00    +0.000 A 
ATOM     11  C   UNL     1       1.896   5.777  -2.466  0.00  0.00    +0.000 A 
BRANCH   8  12
ATOM     12  S   UNL     1       3.686   2.306  -3.432  0.00  0.00    +0.000 S 
ATOM     13  O   UNL     1       4.807   2.557  -2.547  0.00  0.00    +0.000 OA
ATOM     14  O   UNL     1       3.862   2.362  -4.876  0.00  0.00    +0.000 OA
ATOM     15  C   UNL     1       3.032   0.709  -3.066  0.00  0.00    +0.000 C 
ENDBRANCH   8  12
ENDBRANCH   3   6
BRANCH   2  21
ATOM     16  C   UNL     1      -5.200   0.848   2.357  0.00  0.00    +0.000 A 
ATOM     17  C   UNL     1      -4.274   0.179   1.550  0.00  0.00    +0.000 A 
ATOM     18  C   UNL     1      -5.277   2.234   2.239  0.00  0.00    +0.000 A 
ATOM     19  C   UNL     1      -3.535   0.863   0.568  0.00  0.00    +0.000 A 
ATOM     20  C   UNL     1      -4.525   2.912   1.271  0.00  0.00    +0.000 A 
ATOM     21  C   UNL     1      -3.690   2.239   0.362  0.00  0.00    +0.000 A 
BRANCH  16  22
ATOM     22  C   UNL     1      -6.170   0.107   3.265  0.00  0.00    +0.000 C 
ATOM     23  C   UNL     1      -5.811  -1.376   3.442  0.00  0.00    +0.000 C 
ATOM     24  C   UNL     1      -7.614   0.291   2.754  0.00  0.00    +0.000 C 
ATOM     25  C   UNL     1      -6.855  -2.111   4.283  0.00  0.00    +0.000 C 
ATOM     26  C   UNL     1      -8.639  -0.496   3.564  0.00  0.00    +0.000 C 
ATOM     27  C   UNL     1      -8.249  -1.965   3.681  0.00  0.00    +0.000 C 
ENDBRANCH  16  22
ENDBRANCH   2  21
BRANCH   2  28
ATOM     28  C   UNL     1      -3.942   3.265  -1.888  0.00  0.00    +0.000 C 
BRANCH  28  29
ATOM     29  C   UNL     1      -4.951   2.199  -2.291  0.00  0.00    +0.000 A 
ATOM     30  C   UNL     1      -4.486   1.077  -2.999  0.00  0.00    +0.000 A 
ATOM     31  C   UNL     1      -6.309   2.239  -1.935  0.00  0.00    +0.000 A 
ATOM     32  C   UNL     1      -5.331   0.000  -3.277  0.00  0.00    +0.000 A 
ATOM     33  C   UNL     1      -7.155   1.146  -2.195  0.00  0.00    +0.000 A 
ATOM     34  C   UNL     1      -6.660   0.005  -2.836  0.00  0.00    +0.000 A 
BRANCH  34  41
ATOM     35  O   UNL     1      -8.397  -1.269  -3.737  0.00  0.00    +0.000 OA
ATOM     36  N   UNL     1      -7.034  -2.327  -2.199  0.00  0.00    +0.000 N 
ATOM     37  N   UNL     1      -7.376  -4.484  -1.307  0.00  0.00    +0.000 NA
ATOM     38  N   UNL     1      -8.521  -3.990  -3.189  0.00  0.00    +0.000 NA
ATOM     39  N   UNL     1      -8.220  -5.452  -1.707  0.00  0.00    +0.000 N 
ATOM     40  N   UNL     1      -8.885  -5.218  -2.841  0.00  0.00    +0.000 NA
ATOM     41  C   UNL     1      -7.442  -1.265  -2.971  0.00  0.00    +0.000 C 
ATOM     42  C   UNL     1      -7.633  -3.561  -2.241  0.00  0.00    +0.000 A 
ATOM     43  H   UNL     1      -6.369  -2.223  -1.453  0.00  0.00    +0.000 HD
ATOM     44  H   UNL     1      -8.365  -6.303  -1.171  0.00  0.00    +0.000 HD
ENDBRANCH  34  41
ENDBRANCH  28  29
ENDBRANCH   2  28
TORSDOF 7
ENDMDL
