MODEL 1
REMARK VINA RESULT:     0.000      0.000      0.000
REMARK INTER + INTRA:          -1.336
REMARK INTER:                   0.000
REMARK INTRA:                  -1.336
REMARK UNBOUND:                -1.336
REMARK  Name = 76287260
REMARK  9 active torsions:
REMARK  status: ('A' for Active; 'I' for Inactive)
REMARK    1  A    between atoms: S_1  and  C_11
REMARK    2  A    between atoms: S_1  and  C_20
REMARK    3  A    between atoms: O_3  and  C_16
REMARK    4  A    between atoms: O_3  and  C_31
REMARK    5  A    between atoms: N_6  and  C_24
REMARK    6  A    between atoms: C_10  and  C_12
REMARK    7  A    between atoms: C_13  and  C_14
REMARK    8  A    between atoms: C_20  and  C_29
REMARK    9  A    between atoms: C_24  and  C_30
REMARK                            x       y       z     vdW  Elec       q    Type
REMARK                         _______ _______ _______ _____ _____    ______ ____
ROOT
ATOM      1  F   UNL     1      -3.276  -4.206  -0.238  0.00  0.00    +0.000 F 
ATOM      2  C   UNL     1      -3.022  -1.832  -0.410  0.00  0.00    +0.000 A 
ATOM      3  C   UNL     1      -5.103  -0.484  -0.167  0.00  0.00    +0.000 A 
ATOM      4  C   UNL     1      -3.701  -0.597  -0.341  0.00  0.00    +0.000 A 
ATOM      5  C   UNL     1      -3.817  -2.977  -0.226  0.00  0.00    +0.000 A 
ATOM      6  C   UNL     1      -5.834  -1.675  -0.030  0.00  0.00    +0.000 A 
ATOM      7  C   UNL     1      -5.194  -2.909  -0.038  0.00  0.00    +0.000 A 
ENDROOT
BRANCH   3  12
ATOM      8  N   UNL     1      -6.956   3.199  -2.440  0.00  0.00    +0.000 N 
ATOM      9  N   UNL     1      -5.931   1.243  -2.646  0.00  0.00    +0.000 NA
ATOM     10  N   UNL     1      -7.075   3.361  -0.015  0.00  0.00    +0.000 NA
ATOM     11  N   UNL     1      -6.771   2.715   1.090  0.00  0.00    +0.000 NA
ATOM     12  C   UNL     1      -5.782   0.822  -0.139  0.00  0.00    +0.000 A 
ATOM     13  C   UNL     1      -6.114   1.528  -1.306  0.00  0.00    +0.000 A 
ATOM     14  C   UNL     1      -6.744   2.756  -1.169  0.00  0.00    +0.000 A 
ATOM     15  C   UNL     1      -6.457   2.261  -3.294  0.00  0.00    +0.000 A 
ATOM     16  C   UNL     1      -6.157   1.499   1.024  0.00  0.00    +0.000 A 
BRANCH   8  17
ATOM     17  C   UNL     1      -7.581   4.445  -2.821  0.00  0.00    +0.000 C 
ATOM     18  C   UNL     1      -6.578   5.577  -2.953  0.00  0.00    +0.000 C 
ENDBRANCH   8  17
ENDBRANCH   3  12
BRANCH   2  19
ATOM     19  C   UNL     1      -1.554  -1.932  -0.691  0.00  0.00    +0.000 A 
ATOM     20  C   UNL     1       1.229  -2.310  -1.026  0.00  0.00    +0.000 A 
ATOM     21  C   UNL     1      -1.005  -2.222  -1.971  0.00  0.00    +0.000 A 
ATOM     22  C   UNL     1       0.381  -2.389  -2.125  0.00  0.00    +0.000 A 
ATOM     23  C   UNL     1      -0.640  -1.810   0.386  0.00  0.00    +0.000 A 
ATOM     24  C   UNL     1       0.731  -2.028   0.235  0.00  0.00    +0.000 A 
BRANCH  20  25
ATOM     25  S   UNL     1       2.967  -2.569  -1.262  0.00  0.00    +0.000 S 
ATOM     26  O   UNL     1       3.664  -1.442  -0.676  0.00  0.00    +0.000 OA
ATOM     27  O   UNL     1       3.152  -2.916  -2.660  0.00  0.00    +0.000 OA
BRANCH  25  28
ATOM     28  C   UNL     1       3.305  -4.003  -0.266  0.00  0.00    +0.000 C 
ATOM     29  C   UNL     1       2.512  -5.199  -0.747  0.00  0.00    +0.000 C 
ENDBRANCH  25  28
ENDBRANCH  20  25
BRANCH  21  30
ATOM     30  O   UNL     1      -1.855  -2.318  -3.048  0.00  0.00    +0.000 OA
ATOM     31  C   UNL     1      -2.093  -3.619  -3.584  0.00  0.00    +0.000 C 
ENDBRANCH  21  30
ENDBRANCH   2  19
TORSDOF 6
ENDMDL
MODEL 2
REMARK VINA RESULT:     0.000      5.252      8.540
REMARK INTER + INTRA:          -1.336
REMARK INTER:                   0.000
REMARK INTRA:                  -1.336
REMARK UNBOUND:                -1.336
REMARK  Name = 76287260
REMARK  9 active torsions:
REMARK  status: ('A' for Active; 'I' for Inactive)
REMARK    1  A    between atoms: S_1  and  C_11
REMARK    2  A    between atoms: S_1  and  C_20
REMARK    3  A    between atoms: O_3  and  C_16
REMARK    4  A    between atoms: O_3  and  C_31
REMARK    5  A    between atoms: N_6  and  C_24
REMARK    6  A    between atoms: C_10  and  C_12
REMARK    7  A    between atoms: C_13  and  C_14
REMARK    8  A    between atoms: C_20  and  C_29
REMARK    9  A    between atoms: C_24  and  C_30
REMARK                            x       y       z     vdW  Elec       q    Type
REMARK                         _______ _______ _______ _____ _____    ______ ____
ROOT
ATOM      1  F   UNL     1      -3.592  -2.361   2.137  0.00  0.00    +0.000 F 
ATOM      2  C   UNL     1      -2.076  -1.130   0.753  0.00  0.00    +0.000 A 
ATOM      3  C   UNL     1       0.307  -1.112   1.480  0.00  0.00    +0.000 A 
ATOM      4  C   UNL     1      -0.724  -0.768   0.571  0.00  0.00    +0.000 A 
ATOM      5  C   UNL     1      -2.348  -1.928   1.879  0.00  0.00    +0.000 A 
ATOM      6  C   UNL     1      -0.050  -1.878   2.601  0.00  0.00    +0.000 A 
ATOM      7  C   UNL     1      -1.362  -2.300   2.788  0.00  0.00    +0.000 A 
ENDROOT
BRANCH   3  12
ATOM      8  N   UNL     1       3.650   2.185   1.817  0.00  0.00    +0.000 N 
ATOM      9  N   UNL     1       1.520   1.689   2.183  0.00  0.00    +0.000 NA
ATOM     10  N   UNL     1       4.409   0.094   0.832  0.00  0.00    +0.000 NA
ATOM     11  N   UNL     1       4.000  -1.112   0.502  0.00  0.00    +0.000 NA
ATOM     12  C   UNL     1       1.700  -0.683   1.277  0.00  0.00    +0.000 A 
ATOM     13  C   UNL     1       2.156   0.598   1.621  0.00  0.00    +0.000 A 
ATOM     14  C   UNL     1       3.487   0.906   1.378  0.00  0.00    +0.000 A 
ATOM     15  C   UNL     1       2.448   2.616   2.295  0.00  0.00    +0.000 A 
ATOM     16  C   UNL     1       2.705  -1.480   0.720  0.00  0.00    +0.000 A 
BRANCH   8  17
ATOM     17  C   UNL     1       4.870   2.959   1.772  0.00  0.00    +0.000 C 
ATOM     18  C   UNL     1       5.010   3.740   0.477  0.00  0.00    +0.000 C 
ENDBRANCH   8  17
ENDBRANCH   3  12
BRANCH   2  19
ATOM     19  C   UNL     1      -3.165  -0.674  -0.169  0.00  0.00    +0.000 A 
ATOM     20  C   UNL     1      -5.322  -0.067  -1.895  0.00  0.00    +0.000 A 
ATOM     21  C   UNL     1      -4.029   0.424   0.100  0.00  0.00    +0.000 A 
ATOM     22  C   UNL     1      -5.084   0.725  -0.777  0.00  0.00    +0.000 A 
ATOM     23  C   UNL     1      -3.420  -1.416  -1.349  0.00  0.00    +0.000 A 
ATOM     24  C   UNL     1      -4.502  -1.143  -2.189  0.00  0.00    +0.000 A 
BRANCH  20  25
ATOM     25  S   UNL     1      -6.691   0.326  -2.950  0.00  0.00    +0.000 S 
ATOM     26  O   UNL     1      -6.189   0.420  -4.306  0.00  0.00    +0.000 OA
ATOM     27  O   UNL     1      -7.388   1.441  -2.334  0.00  0.00    +0.000 OA
BRANCH  25  28
ATOM     28  C   UNL     1      -7.718  -1.122  -2.842  0.00  0.00    +0.000 C 
ATOM     29  C   UNL     1      -8.184  -1.354  -1.420  0.00  0.00    +0.000 C 
ENDBRANCH  25  28
ENDBRANCH  20  25
BRANCH  21  30
ATOM     30  O   UNL     1      -3.797   1.189   1.219  0.00  0.00    +0.000 OA
ATOM     31  C   UNL     1      -4.710   1.055   2.307  0.00  0.00    +0.000 C 
ENDBRANCH  21  30
ENDBRANCH   2  19
TORSDOF 6
ENDMDL
MODEL 3
REMARK VINA RESULT:     0.000      3.694      4.670
REMARK INTER + INTRA:          -1.336
REMARK INTER:                   0.000
REMARK INTRA:                  -1.336
REMARK UNBOUND:                -1.336
REMARK  Name = 76287260
REMARK  9 active torsions:
REMARK  status: ('A' for Active; 'I' for Inactive)
REMARK    1  A    between atoms: S_1  and  C_11
REMARK    2  A    between atoms: S_1  and  C_20
REMARK    3  A    between atoms: O_3  and  C_16
REMARK    4  A    between atoms: O_3  and  C_31
REMARK    5  A    between atoms: N_6  and  C_24
REMARK    6  A    between atoms: C_10  and  C_12
REMARK    7  A    between atoms: C_13  and  C_14
REMARK    8  A    between atoms: C_20  and  C_29
REMARK    9  A    between atoms: C_24  and  C_30
REMARK                            x       y       z     vdW  Elec       q    Type
REMARK                         _______ _______ _______ _____ _____    ______ ____
ROOT
ATOM      1  F   UNL     1       1.188  -4.387  -0.898  0.00  0.00    +0.000 F 
ATOM      2  C   UNL     1      -0.642  -2.935  -0.378  0.00  0.00    +0.000 A 
ATOM      3  C   UNL     1      -2.920  -3.923  -0.580  0.00  0.00    +0.000 A 
ATOM      4  C   UNL     1      -2.046  -2.855  -0.258  0.00  0.00    +0.000 A 
ATOM      5  C   UNL     1      -0.134  -4.183  -0.780  0.00  0.00    +0.000 A 
ATOM      6  C   UNL     1      -2.338  -5.126  -1.012  0.00  0.00    +0.000 A 
ATOM      7  C   UNL     1      -0.956  -5.261  -1.092  0.00  0.00    +0.000 A 
ENDROOT
BRANCH   3  12
ATOM      8  N   UNL     1      -7.017  -2.474  -2.390  0.00  0.00    +0.000 N 
ATOM      9  N   UNL     1      -4.822  -2.596  -2.685  0.00  0.00    +0.000 NA
ATOM     10  N   UNL     1      -7.212  -3.542  -0.213  0.00  0.00    +0.000 NA
ATOM     11  N   UNL     1      -6.503  -4.121   0.732  0.00  0.00    +0.000 NA
ATOM     12  C   UNL     1      -4.383  -3.791  -0.480  0.00  0.00    +0.000 A 
ATOM     13  C   UNL     1      -5.157  -3.176  -1.476  0.00  0.00    +0.000 A 
ATOM     14  C   UNL     1      -6.528  -3.093  -1.279  0.00  0.00    +0.000 A 
ATOM     15  C   UNL     1      -5.963  -2.197  -3.208  0.00  0.00    +0.000 A 
ATOM     16  C   UNL     1      -5.151  -4.241   0.597  0.00  0.00    +0.000 A 
BRANCH   8  17
ATOM     17  C   UNL     1      -8.402  -2.152  -2.653  0.00  0.00    +0.000 C 
ATOM     18  C   UNL     1      -8.783  -0.779  -2.129  0.00  0.00    +0.000 C 
ENDBRANCH   8  17
ENDBRANCH   3  12
BRANCH   2  19
ATOM     19  C   UNL     1       0.257  -1.764  -0.125  0.00  0.00    +0.000 A 
ATOM     20  C   UNL     1       2.121   0.274   0.485  0.00  0.00    +0.000 A 
ATOM     21  C   UNL     1       0.801  -0.940  -1.149  0.00  0.00    +0.000 A 
ATOM     22  C   UNL     1       1.710   0.080  -0.829  0.00  0.00    +0.000 A 
ATOM     23  C   UNL     1       0.669  -1.490   1.204  0.00  0.00    +0.000 A 
ATOM     24  C   UNL     1       1.613  -0.507   1.510  0.00  0.00    +0.000 A 
BRANCH  20  25
ATOM     25  S   UNL     1       3.303   1.548   0.837  0.00  0.00    +0.000 S 
ATOM     26  O   UNL     1       2.756   2.377   1.892  0.00  0.00    +0.000 OA
ATOM     27  O   UNL     1       3.691   2.123  -0.439  0.00  0.00    +0.000 OA
BRANCH  25  28
ATOM     28  C   UNL     1       4.685   0.648   1.504  0.00  0.00    +0.000 C 
ATOM     29  C   UNL     1       5.235  -0.334   0.492  0.00  0.00    +0.000 C 
ENDBRANCH  25  28
ENDBRANCH  20  25
BRANCH  21  30
ATOM     30  O   UNL     1       0.404  -1.153  -2.449  0.00  0.00    +0.000 OA
ATOM     31  C   UNL     1       1.350  -1.747  -3.337  0.00  0.00    +0.000 C 
ENDBRANCH  21  30
ENDBRANCH   2  19
TORSDOF 6
ENDMDL
MODEL 4
REMARK VINA RESULT:     0.000      5.315      9.003
REMARK INTER + INTRA:          -1.336
REMARK INTER:                   0.000
REMARK INTRA:                  -1.336
REMARK UNBOUND:                -1.336
REMARK  Name = 76287260
REMARK  9 active torsions:
REMARK  status: ('A' for Active; 'I' for Inactive)
REMARK    1  A    between atoms: S_1  and  C_11
REMARK    2  A    between atoms: S_1  and  C_20
REMARK    3  A    between atoms: O_3  and  C_16
REMARK    4  A    between atoms: O_3  and  C_31
REMARK    5  A    between atoms: N_6  and  C_24
REMARK    6  A    between atoms: C_10  and  C_12
REMARK    7  A    between atoms: C_13  and  C_14
REMARK    8  A    between atoms: C_20  and  C_29
REMARK    9  A    between atoms: C_24  and  C_30
REMARK                            x       y       z     vdW  Elec       q    Type
REMARK                         _______ _______ _______ _____ _____    ______ ____
ROOT
ATOM      1  F   UNL     1      -3.484   0.445  -3.778  0.00  0.00    +0.000 F 
ATOM      2  C   UNL     1      -2.375  -0.800  -2.061  0.00  0.00    +0.000 A 
ATOM      3  C   UNL     1       0.114  -0.700  -2.065  0.00  0.00    +0.000 A 
ATOM      4  C   UNL     1      -1.117  -1.124  -1.508  0.00  0.00    +0.000 A 
ATOM      5  C   UNL     1      -2.348   0.043  -3.186  0.00  0.00    +0.000 A 
ATOM      6  C   UNL     1       0.060   0.108  -3.212  0.00  0.00    +0.000 A 
ATOM      7  C   UNL     1      -1.161   0.493  -3.755  0.00  0.00    +0.000 A 
ENDROOT
BRANCH   3  12
ATOM      8  N   UNL     1       3.564  -3.861  -1.542  0.00  0.00    +0.000 N 
ATOM      9  N   UNL     1       1.608  -3.420  -2.491  0.00  0.00    +0.000 NA
ATOM     10  N   UNL     1       3.907  -1.797  -0.302  0.00  0.00    +0.000 NA
ATOM     11  N   UNL     1       3.365  -0.623  -0.059  0.00  0.00    +0.000 NA
ATOM     12  C   UNL     1       1.409  -1.091  -1.483  0.00  0.00    +0.000 A 
ATOM     13  C   UNL     1       2.004  -2.338  -1.728  0.00  0.00    +0.000 A 
ATOM     14  C   UNL     1       3.221  -2.611  -1.122  0.00  0.00    +0.000 A 
ATOM     15  C   UNL     1       2.572  -4.309  -2.363  0.00  0.00    +0.000 A 
ATOM     16  C   UNL     1       2.172  -0.289  -0.630  0.00  0.00    +0.000 A 
BRANCH   8  17
ATOM     17  C   UNL     1       4.754  -4.594  -1.174  0.00  0.00    +0.000 C 
ATOM     18  C   UNL     1       4.552  -5.433   0.075  0.00  0.00    +0.000 C 
ENDBRANCH   8  17
ENDBRANCH   3  12
BRANCH   2  19
ATOM     19  C   UNL     1      -3.661  -1.338  -1.513  0.00  0.00    +0.000 A 
ATOM     20  C   UNL     1      -6.192  -2.104  -0.511  0.00  0.00    +0.000 A 
ATOM     21  C   UNL     1      -4.358  -2.451  -2.061  0.00  0.00    +0.000 A 
ATOM     22  C   UNL     1      -5.605  -2.831  -1.540  0.00  0.00    +0.000 A 
ATOM     23  C   UNL     1      -4.280  -0.665  -0.430  0.00  0.00    +0.000 A 
ATOM     24  C   UNL     1      -5.544  -1.016   0.049  0.00  0.00    +0.000 A 
BRANCH  20  25
ATOM     25  S   UNL     1      -7.788  -2.596   0.087  0.00  0.00    +0.000 S 
ATOM     26  O   UNL     1      -7.694  -2.741   1.525  0.00  0.00    +0.000 OA
ATOM     27  O   UNL     1      -8.225  -3.701  -0.748  0.00  0.00    +0.000 OA
BRANCH  25  28
ATOM     28  C   UNL     1      -8.806  -1.179  -0.258  0.00  0.00    +0.000 C 
ATOM     29  C   UNL     1      -8.851  -0.889  -1.743  0.00  0.00    +0.000 C 
ENDBRANCH  25  28
ENDBRANCH  20  25
BRANCH  21  30
ATOM     30  O   UNL     1      -3.777  -3.151  -3.093  0.00  0.00    +0.000 OA
ATOM     31  C   UNL     1      -4.343  -2.995  -4.393  0.00  0.00    +0.000 C 
ENDBRANCH  21  30
ENDBRANCH   2  19
TORSDOF 6
ENDMDL
MODEL 5
REMARK VINA RESULT:     0.000      4.524      5.924
REMARK INTER + INTRA:          -1.336
REMARK INTER:                   0.000
REMARK INTRA:                  -1.336
REMARK UNBOUND:                -1.336
REMARK  Name = 76287260
REMARK  9 active torsions:
REMARK  status: ('A' for Active; 'I' for Inactive)
REMARK    1  A    between atoms: S_1  and  C_11
REMARK    2  A    between atoms: S_1  and  C_20
REMARK    3  A    between atoms: O_3  and  C_16
REMARK    4  A    between atoms: O_3  and  C_31
REMARK    5  A    between atoms: N_6  and  C_24
REMARK    6  A    between atoms: C_10  and  C_12
REMARK    7  A    between atoms: C_13  and  C_14
REMARK    8  A    between atoms: C_20  and  C_29
REMARK    9  A    between atoms: C_24  and  C_30
REMARK                            x       y       z     vdW  Elec       q    Type
REMARK                         _______ _______ _______ _____ _____    ______ ____
ROOT
ATOM      1  F   UNL     1      -0.665   3.636  -4.931  0.00  0.00    +0.000 F 
ATOM      2  C   UNL     1      -1.416   2.000  -3.353  0.00  0.00    +0.000 A 
ATOM      3  C   UNL     1      -3.664   1.014  -3.778  0.00  0.00    +0.000 A 
ATOM      4  C   UNL     1      -2.460   1.105  -3.036  0.00  0.00    +0.000 A 
ATOM      5  C   UNL     1      -1.605   2.773  -4.513  0.00  0.00    +0.000 A 
ATOM      6  C   UNL     1      -3.794   1.847  -4.901  0.00  0.00    +0.000 A 
ATOM      7  C   UNL     1      -2.766   2.704  -5.277  0.00  0.00    +0.000 A 
ENDROOT
BRANCH   3  12
ATOM      8  N   UNL     1      -7.408   0.014  -1.106  0.00  0.00    +0.000 N 
ATOM      9  N   UNL     1      -5.829   1.502  -1.568  0.00  0.00    +0.000 NA
ATOM     10  N   UNL     1      -6.811  -1.741  -2.681  0.00  0.00    +0.000 NA
ATOM     11  N   UNL     1      -5.950  -2.043  -3.628  0.00  0.00    +0.000 NA
ATOM     12  C   UNL     1      -4.748   0.096  -3.395  0.00  0.00    +0.000 A 
ATOM     13  C   UNL     1      -5.676   0.398  -2.386  0.00  0.00    +0.000 A 
ATOM     14  C   UNL     1      -6.653  -0.542  -2.094  0.00  0.00    +0.000 A 
ATOM     15  C   UNL     1      -6.883   1.240  -0.823  0.00  0.00    +0.000 A 
ATOM     16  C   UNL     1      -4.968  -1.160  -3.969  0.00  0.00    +0.000 A 
BRANCH   8  17
ATOM     17  C   UNL     1      -8.552  -0.587  -0.458  0.00  0.00    +0.000 C 
ATOM     18  C   UNL     1      -8.160  -1.404   0.761  0.00  0.00    +0.000 C 
ENDBRANCH   8  17
ENDBRANCH   3  12
BRANCH   2  19
ATOM     19  C   UNL     1      -0.193   2.150  -2.500  0.00  0.00    +0.000 A 
ATOM     20  C   UNL     1       2.259   2.437  -1.121  0.00  0.00    +0.000 A 
ATOM     21  C   UNL     1      -0.010   3.187  -1.544  0.00  0.00    +0.000 A 
ATOM     22  C   UNL     1       1.207   3.306  -0.854  0.00  0.00    +0.000 A 
ATOM     23  C   UNL     1       0.892   1.260  -2.696  0.00  0.00    +0.000 A 
ATOM     24  C   UNL     1       2.117   1.414  -2.044  0.00  0.00    +0.000 A 
BRANCH  20  25
ATOM     25  S   UNL     1       3.791   2.651  -0.254  0.00  0.00    +0.000 S 
ATOM     26  O   UNL     1       4.146   1.375   0.334  0.00  0.00    +0.000 OA
ATOM     27  O   UNL     1       3.643   3.837   0.570  0.00  0.00    +0.000 OA
BRANCH  25  28
ATOM     28  C   UNL     1       4.951   2.998  -1.557  0.00  0.00    +0.000 C 
ATOM     29  C   UNL     1       4.571   4.260  -2.302  0.00  0.00    +0.000 C 
ENDBRANCH  25  28
ENDBRANCH  20  25
BRANCH  21  30
ATOM     30  O   UNL     1      -1.050   4.054  -1.302  0.00  0.00    +0.000 OA
ATOM     31  C   UNL     1      -0.924   5.387  -1.797  0.00  0.00    +0.000 C 
ENDBRANCH  21  30
ENDBRANCH   2  19
TORSDOF 6
ENDMDL
MODEL 6
REMARK VINA RESULT:     0.000      5.238      8.331
REMARK INTER + INTRA:          -1.336
REMARK INTER:                   0.000
REMARK INTRA:                  -1.336
REMARK UNBOUND:                -1.336
REMARK  Name = 76287260
REMARK  9 active torsions:
REMARK  status: ('A' for Active; 'I' for Inactive)
REMARK    1  A    between atoms: S_1  and  C_11
REMARK    2  A    between atoms: S_1  and  C_20
REMARK    3  A    between atoms: O_3  and  C_16
REMARK    4  A    between atoms: O_3  and  C_31
REMARK    5  A    between atoms: N_6  and  C_24
REMARK    6  A    between atoms: C_10  and  C_12
REMARK    7  A    between atoms: C_13  and  C_14
REMARK    8  A    between atoms: C_20  and  C_29
REMARK    9  A    between atoms: C_24  and  C_30
REMARK                            x       y       z     vdW  Elec       q    Type
REMARK                         _______ _______ _______ _____ _____    ______ ____
ROOT
ATOM      1  F   UNL     1      -3.347  -2.631  -2.257  0.00  0.00    +0.000 F 
ATOM      2  C   UNL     1      -2.518  -0.427  -1.824  0.00  0.00    +0.000 A 
ATOM      3  C   UNL     1      -0.356   0.166  -2.910  0.00  0.00    +0.000 A 
ATOM      4  C   UNL     1      -1.484   0.488  -2.115  0.00  0.00    +0.000 A 
ATOM      5  C   UNL     1      -2.406  -1.690  -2.434  0.00  0.00    +0.000 A 
ATOM      6  C   UNL     1      -0.297  -1.128  -3.452  0.00  0.00    +0.000 A 
ATOM      7  C   UNL     1      -1.323  -2.040  -3.234  0.00  0.00    +0.000 A 
ENDROOT
BRANCH   3  12
ATOM      8  N   UNL     1       3.575   2.343  -1.508  0.00  0.00    +0.000 N 
ATOM      9  N   UNL     1       2.018   0.853  -0.986  0.00  0.00    +0.000 NA
ATOM     10  N   UNL     1       2.772   3.046  -3.694  0.00  0.00    +0.000 NA
ATOM     11  N   UNL     1       1.818   2.831  -4.574  0.00  0.00    +0.000 NA
ATOM     12  C   UNL     1       0.723   1.135  -3.160  0.00  0.00    +0.000 A 
ATOM     13  C   UNL     1       1.750   1.381  -2.235  0.00  0.00    +0.000 A 
ATOM     14  C   UNL     1       2.714   2.323  -2.563  0.00  0.00    +0.000 A 
ATOM     15  C   UNL     1       3.124   1.445  -0.587  0.00  0.00    +0.000 A 
ATOM     16  C   UNL     1       0.844   1.913  -4.315  0.00  0.00    +0.000 A 
BRANCH   8  17
ATOM     17  C   UNL     1       4.750   3.175  -1.375  0.00  0.00    +0.000 C 
ATOM     18  C   UNL     1       4.440   4.508  -0.717  0.00  0.00    +0.000 C 
ENDBRANCH   8  17
ENDBRANCH   3  12
BRANCH   2  19
ATOM     19  C   UNL     1      -3.652  -0.098  -0.902  0.00  0.00    +0.000 A 
ATOM     20  C   UNL     1      -5.958   0.402   0.658  0.00  0.00    +0.000 A 
ATOM     21  C   UNL     1      -3.710  -0.494   0.463  0.00  0.00    +0.000 A 
ATOM     22  C   UNL     1      -4.855  -0.221   1.230  0.00  0.00    +0.000 A 
ATOM     23  C   UNL     1      -4.783   0.580  -1.421  0.00  0.00    +0.000 A 
ATOM     24  C   UNL     1      -5.937   0.802  -0.668  0.00  0.00    +0.000 A 
BRANCH  20  25
ATOM     25  S   UNL     1      -7.396   0.687   1.654  0.00  0.00    +0.000 S 
ATOM     26  O   UNL     1      -7.742   2.089   1.537  0.00  0.00    +0.000 OA
ATOM     27  O   UNL     1      -7.131   0.090   2.951  0.00  0.00    +0.000 OA
BRANCH  25  28
ATOM     28  C   UNL     1      -8.656  -0.262   0.832  0.00  0.00    +0.000 C 
ATOM     29  C   UNL     1      -8.301  -1.733   0.808  0.00  0.00    +0.000 C 
ENDBRANCH  25  28
ENDBRANCH  20  25
BRANCH  21  30
ATOM     30  O   UNL     1      -2.621  -1.128   1.015  0.00  0.00    +0.000 OA
ATOM     31  C   UNL     1      -2.742  -2.523   1.288  0.00  0.00    +0.000 C 
ENDBRANCH  21  30
ENDBRANCH   2  19
TORSDOF 6
ENDMDL
MODEL 7
REMARK VINA RESULT:     0.000      5.704      9.316
REMARK INTER + INTRA:          -1.336
REMARK INTER:                   0.000
REMARK INTRA:                  -1.336
REMARK UNBOUND:                -1.336
REMARK  Name = 76287260
REMARK  9 active torsions:
REMARK  status: ('A' for Active; 'I' for Inactive)
REMARK    1  A    between atoms: S_1  and  C_11
REMARK    2  A    between atoms: S_1  and  C_20
REMARK    3  A    between atoms: O_3  and  C_16
REMARK    4  A    between atoms: O_3  and  C_31
REMARK    5  A    between atoms: N_6  and  C_24
REMARK    6  A    between atoms: C_10  and  C_12
REMARK    7  A    between atoms: C_13  and  C_14
REMARK    8  A    between atoms: C_20  and  C_29
REMARK    9  A    between atoms: C_24  and  C_30
REMARK                            x       y       z     vdW  Elec       q    Type
REMARK                         _______ _______ _______ _____ _____    ______ ____
ROOT
ATOM      1  F   UNL     1      -3.941   5.245   1.428  0.00  0.00    +0.000 F 
ATOM      2  C   UNL     1      -3.116   3.028   1.063  0.00  0.00    +0.000 A 
ATOM      3  C   UNL     1      -1.131   2.359   2.410  0.00  0.00    +0.000 A 
ATOM      4  C   UNL     1      -2.151   2.081   1.468  0.00  0.00    +0.000 A 
ATOM      5  C   UNL     1      -3.054   4.276   1.708  0.00  0.00    +0.000 A 
ATOM      6  C   UNL     1      -1.111   3.641   2.982  0.00  0.00    +0.000 A 
ATOM      7  C   UNL     1      -2.077   4.584   2.649  0.00  0.00    +0.000 A 
ENDROOT
BRANCH   3  12
ATOM      8  N   UNL     1       2.897   0.102   1.490  0.00  0.00    +0.000 N 
ATOM      9  N   UNL     1       1.458   1.641   0.799  0.00  0.00    +0.000 NA
ATOM     10  N   UNL     1       1.798  -0.616   3.537  0.00  0.00    +0.000 NA
ATOM     11  N   UNL     1       0.742  -0.390   4.289  0.00  0.00    +0.000 NA
ATOM     12  C   UNL     1      -0.116   1.357   2.779  0.00  0.00    +0.000 A 
ATOM     13  C   UNL     1       1.016   1.100   1.991  0.00  0.00    +0.000 A 
ATOM     14  C   UNL     1       1.905   0.128   2.423  0.00  0.00    +0.000 A 
ATOM     15  C   UNL     1       2.593   1.027   0.536  0.00  0.00    +0.000 A 
ATOM     16  C   UNL     1      -0.168   0.558   3.924  0.00  0.00    +0.000 A 
BRANCH   8  17
ATOM     17  C   UNL     1       4.059  -0.758   1.495  0.00  0.00    +0.000 C 
ATOM     18  C   UNL     1       3.807  -2.070   0.772  0.00  0.00    +0.000 C 
ENDBRANCH   8  17
ENDBRANCH   3  12
BRANCH   2  19
ATOM     19  C   UNL     1      -4.127   2.744  -0.006  0.00  0.00    +0.000 A 
ATOM     20  C   UNL     1      -6.219   2.333  -1.864  0.00  0.00    +0.000 A 
ATOM     21  C   UNL     1      -3.996   3.165  -1.359  0.00  0.00    +0.000 A 
ATOM     22  C   UNL     1      -5.036   2.936  -2.274  0.00  0.00    +0.000 A 
ATOM     23  C   UNL     1      -5.332   2.087   0.347  0.00  0.00    +0.000 A 
ATOM     24  C   UNL     1      -6.383   1.909  -0.555  0.00  0.00    +0.000 A 
BRANCH  20  25
ATOM     25  S   UNL     1      -7.521   2.102  -3.046  0.00  0.00    +0.000 S 
ATOM     26  O   UNL     1      -7.913   0.708  -3.003  0.00  0.00    +0.000 OA
ATOM     27  O   UNL     1      -7.074   2.715  -4.284  0.00  0.00    +0.000 OA
BRANCH  25  28
ATOM     28  C   UNL     1      -8.855   3.070  -2.376  0.00  0.00    +0.000 C 
ATOM     29  C   UNL     1      -8.470   4.531  -2.275  0.00  0.00    +0.000 C 
ENDBRANCH  25  28
ENDBRANCH  20  25
BRANCH  21  30
ATOM     30  O   UNL     1      -2.829   3.779  -1.750  0.00  0.00    +0.000 OA
ATOM     31  C   UNL     1      -2.879   5.182  -2.008  0.00  0.00    +0.000 C 
ENDBRANCH  21  30
ENDBRANCH   2  19
TORSDOF 6
ENDMDL
MODEL 8
REMARK VINA RESULT:     0.000      5.175      9.059
REMARK INTER + INTRA:          -1.336
REMARK INTER:                   0.000
REMARK INTRA:                  -1.336
REMARK UNBOUND:                -1.336
REMARK  Name = 76287260
REMARK  9 active torsions:
REMARK  status: ('A' for Active; 'I' for Inactive)
REMARK    1  A    between atoms: S_1  and  C_11
REMARK    2  A    between atoms: S_1  and  C_20
REMARK    3  A    between atoms: O_3  and  C_16
REMARK    4  A    between atoms: O_3  and  C_31
REMARK    5  A    between atoms: N_6  and  C_24
REMARK    6  A    between atoms: C_10  and  C_12
REMARK    7  A    between atoms: C_13  and  C_14
REMARK    8  A    between atoms: C_20  and  C_29
REMARK    9  A    between atoms: C_24  and  C_30
REMARK                            x       y       z     vdW  Elec       q    Type
REMARK                         _______ _______ _______ _____ _____    ______ ____
ROOT
ATOM      1  F   UNL     1      -3.695  -0.819   3.246  0.00  0.00    +0.000 F 
ATOM      2  C   UNL     1      -2.599  -0.479   1.145  0.00  0.00    +0.000 A 
ATOM      3  C   UNL     1      -0.492  -1.758   0.786  0.00  0.00    +0.000 A 
ATOM      4  C   UNL     1      -1.503  -0.868   0.346  0.00  0.00    +0.000 A 
ATOM      5  C   UNL     1      -2.678  -1.087   2.411  0.00  0.00    +0.000 A 
ATOM      6  C   UNL     1      -0.620  -2.293   2.078  0.00  0.00    +0.000 A 
ATOM      7  C   UNL     1      -1.714  -1.976   2.876  0.00  0.00    +0.000 A 
ENDROOT
BRANCH   3  12
ATOM      8  N   UNL     1       3.760  -0.728  -0.953  0.00  0.00    +0.000 N 
ATOM      9  N   UNL     1       2.104  -0.057   0.361  0.00  0.00    +0.000 NA
ATOM     10  N   UNL     1       2.846  -2.840  -1.741  0.00  0.00    +0.000 NA
ATOM     11  N   UNL     1       1.800  -3.630  -1.631  0.00  0.00    +0.000 NA
ATOM     12  C   UNL     1       0.659  -2.110  -0.061  0.00  0.00    +0.000 A 
ATOM     13  C   UNL     1       1.784  -1.282  -0.194  0.00  0.00    +0.000 A 
ATOM     14  C   UNL     1       2.810  -1.702  -1.027  0.00  0.00    +0.000 A 
ATOM     15  C   UNL     1       3.299   0.238  -0.108  0.00  0.00    +0.000 A 
ATOM     16  C   UNL     1       0.759  -3.278  -0.823  0.00  0.00    +0.000 A 
BRANCH   8  17
ATOM     17  C   UNL     1       5.024  -0.706  -1.653  0.00  0.00    +0.000 C 
ATOM     18  C   UNL     1       4.919  -0.035  -3.011  0.00  0.00    +0.000 C 
ENDBRANCH   8  17
ENDBRANCH   3  12
BRANCH   2  19
ATOM     19  C   UNL     1      -3.605   0.537   0.697  0.00  0.00    +0.000 A 
ATOM     20  C   UNL     1      -5.695   2.291  -0.046  0.00  0.00    +0.000 A 
ATOM     21  C   UNL     1      -3.583   1.905   1.086  0.00  0.00    +0.000 A 
ATOM     22  C   UNL     1      -4.619   2.768   0.693  0.00  0.00    +0.000 A 
ATOM     23  C   UNL     1      -4.698   0.114  -0.100  0.00  0.00    +0.000 A 
ATOM     24  C   UNL     1      -5.750   0.965  -0.444  0.00  0.00    +0.000 A 
BRANCH  20  25
ATOM     25  S   UNL     1      -7.000   3.409  -0.484  0.00  0.00    +0.000 S 
ATOM     26  O   UNL     1      -7.203   3.310  -1.915  0.00  0.00    +0.000 OA
ATOM     27  O   UNL     1      -6.687   4.682   0.141  0.00  0.00    +0.000 OA
BRANCH  25  28
ATOM     28  C   UNL     1      -8.423   2.709   0.323  0.00  0.00    +0.000 C 
ATOM     29  C   UNL     1      -8.231   2.666   1.824  0.00  0.00    +0.000 C 
ENDBRANCH  25  28
ENDBRANCH  20  25
BRANCH  21  30
ATOM     30  O   UNL     1      -2.524   2.363   1.834  0.00  0.00    +0.000 OA
ATOM     31  C   UNL     1      -2.769   2.658   3.208  0.00  0.00    +0.000 C 
ENDBRANCH  21  30
ENDBRANCH   2  19
TORSDOF 6
ENDMDL
MODEL 9
REMARK VINA RESULT:     0.000      5.025      8.863
REMARK INTER + INTRA:          -1.336
REMARK INTER:                   0.000
REMARK INTRA:                  -1.336
REMARK UNBOUND:                -1.336
REMARK  Name = 76287260
REMARK  9 active torsions:
REMARK  status: ('A' for Active; 'I' for Inactive)
REMARK    1  A    between atoms: S_1  and  C_11
REMARK    2  A    between atoms: S_1  and  C_20
REMARK    3  A    between atoms: O_3  and  C_16
REMARK    4  A    between atoms: O_3  and  C_31
REMARK    5  A    between atoms: N_6  and  C_24
REMARK    6  A    between atoms: C_10  and  C_12
REMARK    7  A    between atoms: C_13  and  C_14
REMARK    8  A    between atoms: C_20  and  C_29
REMARK    9  A    between atoms: C_24  and  C_30
REMARK                            x       y       z     vdW  Elec       q    Type
REMARK                         _______ _______ _______ _____ _____    ______ ____
ROOT
ATOM      1  F   UNL     1      -3.542  -0.423   3.924  0.00  0.00    +0.000 F 
ATOM      2  C   UNL     1      -3.589  -0.950   1.589  0.00  0.00    +0.000 A 
ATOM      3  C   UNL     1      -2.022  -2.732   0.834  0.00  0.00    +0.000 A 
ATOM      4  C   UNL     1      -3.053  -1.791   0.591  0.00  0.00    +0.000 A 
ATOM      5  C   UNL     1      -3.083  -1.143   2.888  0.00  0.00    +0.000 A 
ATOM      6  C   UNL     1      -1.541  -2.839   2.149  0.00  0.00    +0.000 A 
ATOM      7  C   UNL     1      -2.082  -2.066   3.170  0.00  0.00    +0.000 A 
ENDROOT
BRANCH   3  12
ATOM      8  N   UNL     1       0.902  -3.250  -2.820  0.00  0.00    +0.000 N 
ATOM      9  N   UNL     1       0.150  -1.872  -1.253  0.00  0.00    +0.000 NA
ATOM     10  N   UNL     1      -0.429  -5.225  -2.320  0.00  0.00    +0.000 NA
ATOM     11  N   UNL     1      -1.341  -5.686  -1.492  0.00  0.00    +0.000 NA
ATOM     12  C   UNL     1      -1.459  -3.566  -0.241  0.00  0.00    +0.000 A 
ATOM     13  C   UNL     1      -0.486  -3.093  -1.135  0.00  0.00    +0.000 A 
ATOM     14  C   UNL     1      -0.030  -3.957  -2.120  0.00  0.00    +0.000 A 
ATOM     15  C   UNL     1       0.981  -2.007  -2.265  0.00  0.00    +0.000 A 
ATOM     16  C   UNL     1      -1.827  -4.890  -0.497  0.00  0.00    +0.000 A 
BRANCH   8  17
ATOM     17  C   UNL     1       1.661  -3.721  -3.956  0.00  0.00    +0.000 C 
ATOM     18  C   UNL     1       0.953  -3.454  -5.272  0.00  0.00    +0.000 C 
ENDBRANCH   8  17
ENDBRANCH   3  12
BRANCH   2  19
ATOM     19  C   UNL     1      -4.610   0.106   1.293  0.00  0.00    +0.000 A 
ATOM     20  C   UNL     1      -6.666   2.020   0.961  0.00  0.00    +0.000 A 
ATOM     21  C   UNL     1      -4.304   1.484   1.117  0.00  0.00    +0.000 A 
ATOM     22  C   UNL     1      -5.335   2.420   0.934  0.00  0.00    +0.000 A 
ATOM     23  C   UNL     1      -5.980  -0.255   1.259  0.00  0.00    +0.000 A 
ATOM     24  C   UNL     1      -7.002   0.687   1.128  0.00  0.00    +0.000 A 
BRANCH  20  25
ATOM     25  S   UNL     1      -7.935   3.243   0.767  0.00  0.00    +0.000 S 
ATOM     26  O   UNL     1      -8.816   2.799  -0.294  0.00  0.00    +0.000 OA
ATOM     27  O   UNL     1      -7.266   4.530   0.692  0.00  0.00    +0.000 OA
BRANCH  25  28
ATOM     28  C   UNL     1      -8.829   3.149   2.301  0.00  0.00    +0.000 C 
ATOM     29  C   UNL     1      -7.933   3.483   3.475  0.00  0.00    +0.000 C 
ENDBRANCH  25  28
ENDBRANCH  20  25
BRANCH  21  30
ATOM     30  O   UNL     1      -2.984   1.873   1.113  0.00  0.00    +0.000 OA
ATOM     31  C   UNL     1      -2.506   2.588   2.251  0.00  0.00    +0.000 C 
ENDBRANCH  21  30
ENDBRANCH   2  19
TORSDOF 6
ENDMDL
MODEL 10
REMARK VINA RESULT:     0.000      1.837      2.304
REMARK INTER + INTRA:          -1.335
REMARK INTER:                   0.000
REMARK INTRA:                  -1.335
REMARK UNBOUND:                -1.336
REMARK  Name = 76287260
REMARK  9 active torsions:
REMARK  status: ('A' for Active; 'I' for Inactive)
REMARK    1  A    between atoms: S_1  and  C_11
REMARK    2  A    between atoms: S_1  and  C_20
REMARK    3  A    between atoms: O_3  and  C_16
REMARK    4  A    between atoms: O_3  and  C_31
REMARK    5  A    between atoms: N_6  and  C_24
REMARK    6  A    between atoms: C_10  and  C_12
REMARK    7  A    between atoms: C_13  and  C_14
REMARK    8  A    between atoms: C_20  and  C_29
REMARK    9  A    between atoms: C_24  and  C_30
REMARK                            x       y       z     vdW  Elec       q    Type
REMARK                         _______ _______ _______ _____ _____    ______ ____
ROOT
ATOM      1  F   UNL     1      -3.453  -4.198   0.314  0.00  0.00    +0.000 F 
ATOM      2  C   UNL     1      -3.395  -1.945   1.122  0.00  0.00    +0.000 A 
ATOM      3  C   UNL     1      -5.595  -0.797   1.334  0.00  0.00    +0.000 A 
ATOM      4  C   UNL     1      -4.187  -0.834   1.482  0.00  0.00    +0.000 A 
ATOM      5  C   UNL     1      -4.098  -3.071   0.656  0.00  0.00    +0.000 A 
ATOM      6  C   UNL     1      -6.221  -1.947   0.826  0.00  0.00    +0.000 A 
ATOM      7  C   UNL     1      -5.482  -3.081   0.510  0.00  0.00    +0.000 A 
ENDROOT
BRANCH   3  12
ATOM      8  N   UNL     1      -7.225   3.482   0.241  0.00  0.00    +0.000 N 
ATOM      9  N   UNL     1      -5.998   1.760  -0.429  0.00  0.00    +0.000 NA
ATOM     10  N   UNL     1      -7.909   2.686   2.435  0.00  0.00    +0.000 NA
ATOM     11  N   UNL     1      -7.804   1.660   3.252  0.00  0.00    +0.000 NA
ATOM     12  C   UNL     1      -6.385   0.395   1.684  0.00  0.00    +0.000 A 
ATOM     13  C   UNL     1      -6.508   1.500   0.829  0.00  0.00    +0.000 A 
ATOM     14  C   UNL     1      -7.267   2.579   1.260  0.00  0.00    +0.000 A 
ATOM     15  C   UNL     1      -6.457   2.951  -0.753  0.00  0.00    +0.000 A 
ATOM     16  C   UNL     1      -7.078   0.565   2.886  0.00  0.00    +0.000 A 
BRANCH   8  17
ATOM     17  C   UNL     1      -7.863   4.779   0.217  0.00  0.00    +0.000 C 
ATOM     18  C   UNL     1      -6.973   5.870   0.785  0.00  0.00    +0.000 C 
ENDBRANCH   8  17
ENDBRANCH   3  12
BRANCH   2  19
ATOM     19  C   UNL     1      -1.899  -1.929   1.196  0.00  0.00    +0.000 A 
ATOM     20  C   UNL     1       0.910  -2.149   1.440  0.00  0.00    +0.000 A 
ATOM     21  C   UNL     1      -1.048  -1.697   0.079  0.00  0.00    +0.000 A 
ATOM     22  C   UNL     1       0.346  -1.791   0.221  0.00  0.00    +0.000 A 
ATOM     23  C   UNL     1      -1.270  -2.239   2.427  0.00  0.00    +0.000 A 
ATOM     24  C   UNL     1       0.114  -2.381   2.549  0.00  0.00    +0.000 A 
BRANCH  20  25
ATOM     25  S   UNL     1       2.673  -2.296   1.561  0.00  0.00    +0.000 S 
ATOM     26  O   UNL     1       3.107  -1.488   2.682  0.00  0.00    +0.000 OA
ATOM     27  O   UNL     1       3.204  -2.070   0.228  0.00  0.00    +0.000 OA
BRANCH  25  28
ATOM     28  C   UNL     1       2.911  -4.006   1.990  0.00  0.00    +0.000 C 
ATOM     29  C   UNL     1       2.366  -4.919   0.912  0.00  0.00    +0.000 C 
ENDBRANCH  25  28
ENDBRANCH  20  25
BRANCH  21  30
ATOM     30  O   UNL     1      -1.617  -1.363  -1.128  0.00  0.00    +0.000 OA
ATOM     31  C   UNL     1      -1.602  -2.351  -2.157  0.00  0.00    +0.000 C 
ENDBRANCH  21  30
ENDBRANCH   2  19
TORSDOF 6
ENDMDL
MODEL 11
REMARK VINA RESULT:     0.000      4.440      5.330
REMARK INTER + INTRA:          -1.335
REMARK INTER:                   0.000
REMARK INTRA:                  -1.335
REMARK UNBOUND:                -1.336
REMARK  Name = 76287260
REMARK  9 active torsions:
REMARK  status: ('A' for Active; 'I' for Inactive)
REMARK    1  A    between atoms: S_1  and  C_11
REMARK    2  A    between atoms: S_1  and  C_20
REMARK    3  A    between atoms: O_3  and  C_16
REMARK    4  A    between atoms: O_3  and  C_31
REMARK    5  A    between atoms: N_6  and  C_24
REMARK    6  A    between atoms: C_10  and  C_12
REMARK    7  A    between atoms: C_13  and  C_14
REMARK    8  A    between atoms: C_20  and  C_29
REMARK    9  A    between atoms: C_24  and  C_30
REMARK                            x       y       z     vdW  Elec       q    Type
REMARK                         _______ _______ _______ _____ _____    ______ ____
ROOT
ATOM      1  F   UNL     1      -0.148  -3.293   1.438  0.00  0.00    +0.000 F 
ATOM      2  C   UNL     1      -1.986  -2.294   0.276  0.00  0.00    +0.000 A 
ATOM      3  C   UNL     1      -4.059  -3.666   0.113  0.00  0.00    +0.000 A 
ATOM      4  C   UNL     1      -3.330  -2.473  -0.117  0.00  0.00    +0.000 A 
ATOM      5  C   UNL     1      -1.410  -3.363   0.985  0.00  0.00    +0.000 A 
ATOM      6  C   UNL     1      -3.402  -4.703   0.794  0.00  0.00    +0.000 A 
ATOM      7  C   UNL     1      -2.096  -4.545   1.244  0.00  0.00    +0.000 A 
ENDROOT
BRANCH   3  12
ATOM      8  N   UNL     1      -7.132  -4.641  -3.317  0.00  0.00    +0.000 N 
ATOM      9  N   UNL     1      -4.992  -4.426  -2.779  0.00  0.00    +0.000 NA
ATOM     10  N   UNL     1      -8.162  -4.110  -1.178  0.00  0.00    +0.000 NA
ATOM     11  N   UNL     1      -7.877  -3.788   0.065  0.00  0.00    +0.000 NA
ATOM     12  C   UNL     1      -5.448  -3.831  -0.346  0.00  0.00    +0.000 A 
ATOM     13  C   UNL     1      -5.773  -4.173  -1.668  0.00  0.00    +0.000 A 
ATOM     14  C   UNL     1      -7.115  -4.293  -2.000  0.00  0.00    +0.000 A 
ATOM     15  C   UNL     1      -5.840  -4.713  -3.745  0.00  0.00    +0.000 A 
ATOM     16  C   UNL     1      -6.578  -3.661   0.459  0.00  0.00    +0.000 A 
BRANCH   8  17
ATOM     17  C   UNL     1      -8.307  -4.876  -4.127  0.00  0.00    +0.000 C 
ATOM     18  C   UNL     1      -8.806  -3.609  -4.799  0.00  0.00    +0.000 C 
ENDBRANCH   8  17
ENDBRANCH   3  12
BRANCH   2  19
ATOM     19  C   UNL     1      -1.204  -1.062  -0.062  0.00  0.00    +0.000 A 
ATOM     20  C   UNL     1       0.372   1.255  -0.445  0.00  0.00    +0.000 A 
ATOM     21  C   UNL     1      -0.289  -0.971  -1.148  0.00  0.00    +0.000 A 
ATOM     22  C   UNL     1       0.472   0.194  -1.337  0.00  0.00    +0.000 A 
ATOM     23  C   UNL     1      -1.305   0.069   0.786  0.00  0.00    +0.000 A 
ATOM     24  C   UNL     1      -0.508   1.204   0.623  0.00  0.00    +0.000 A 
BRANCH  20  25
ATOM     25  S   UNL     1       1.383   2.690  -0.700  0.00  0.00    +0.000 S 
ATOM     26  O   UNL     1       0.514   3.848  -0.695  0.00  0.00    +0.000 OA
ATOM     27  O   UNL     1       2.237   2.402  -1.839  0.00  0.00    +0.000 OA
BRANCH  25  28
ATOM     28  C   UNL     1       2.385   2.747   0.769  0.00  0.00    +0.000 C 
ATOM     29  C   UNL     1       3.237   1.502   0.895  0.00  0.00    +0.000 C 
ENDBRANCH  25  28
ENDBRANCH  20  25
BRANCH  21  30
ATOM     30  O   UNL     1      -0.182  -2.036  -2.013  0.00  0.00    +0.000 OA
ATOM     31  C   UNL     1       1.005  -2.824  -1.942  0.00  0.00    +0.000 C 
ENDBRANCH  21  30
ENDBRANCH   2  19
TORSDOF 6
ENDMDL
MODEL 12
REMARK VINA RESULT:     0.000      4.094      5.413
REMARK INTER + INTRA:          -1.335
REMARK INTER:                   0.000
REMARK INTRA:                  -1.335
REMARK UNBOUND:                -1.336
REMARK  Name = 76287260
REMARK  9 active torsions:
REMARK  status: ('A' for Active; 'I' for Inactive)
REMARK    1  A    between atoms: S_1  and  C_11
REMARK    2  A    between atoms: S_1  and  C_20
REMARK    3  A    between atoms: O_3  and  C_16
REMARK    4  A    between atoms: O_3  and  C_31
REMARK    5  A    between atoms: N_6  and  C_24
REMARK    6  A    between atoms: C_10  and  C_12
REMARK    7  A    between atoms: C_13  and  C_14
REMARK    8  A    between atoms: C_20  and  C_29
REMARK    9  A    between atoms: C_24  and  C_30
REMARK                            x       y       z     vdW  Elec       q    Type
REMARK                         _______ _______ _______ _____ _____    ______ ____
ROOT
ATOM      1  F   UNL     1      -1.038   4.197   2.806  0.00  0.00    +0.000 F 
ATOM      2  C   UNL     1      -1.200   3.162   0.654  0.00  0.00    +0.000 A 
ATOM      3  C   UNL     1      -3.227   3.719  -0.683  0.00  0.00    +0.000 A 
ATOM      4  C   UNL     1      -1.978   3.070  -0.520  0.00  0.00    +0.000 A 
ATOM      5  C   UNL     1      -1.707   4.006   1.658  0.00  0.00    +0.000 A 
ATOM      6  C   UNL     1      -3.685   4.514   0.380  0.00  0.00    +0.000 A 
ATOM      7  C   UNL     1      -2.922   4.673   1.531  0.00  0.00    +0.000 A 
ENDROOT
BRANCH   3  12
ATOM      8  N   UNL     1      -6.268   1.244  -3.288  0.00  0.00    +0.000 N 
ATOM      9  N   UNL     1      -5.118   1.325  -1.394  0.00  0.00    +0.000 NA
ATOM     10  N   UNL     1      -5.540   3.325  -4.315  0.00  0.00    +0.000 NA
ATOM     11  N   UNL     1      -4.775   4.377  -4.114  0.00  0.00    +0.000 NA
ATOM     12  C   UNL     1      -4.030   3.569  -1.908  0.00  0.00    +0.000 A 
ATOM     13  C   UNL     1      -4.851   2.456  -2.143  0.00  0.00    +0.000 A 
ATOM     14  C   UNL     1      -5.558   2.406  -3.336  0.00  0.00    +0.000 A 
ATOM     15  C   UNL     1      -5.978   0.629  -2.106  0.00  0.00    +0.000 A 
ATOM     16  C   UNL     1      -4.058   4.490  -2.959  0.00  0.00    +0.000 A 
BRANCH   8  17
ATOM     17  C   UNL     1      -7.158   0.740  -4.310  0.00  0.00    +0.000 C 
ATOM     18  C   UNL     1      -6.438  -0.133  -5.322  0.00  0.00    +0.000 C 
ENDBRANCH   8  17
ENDBRANCH   3  12
BRANCH   2  19
ATOM     19  C   UNL     1       0.070   2.391   0.843  0.00  0.00    +0.000 A 
ATOM     20  C   UNL     1       2.575   1.162   1.308  0.00  0.00    +0.000 A 
ATOM     21  C   UNL     1       0.162   1.174   1.574  0.00  0.00    +0.000 A 
ATOM     22  C   UNL     1       1.411   0.566   1.780  0.00  0.00    +0.000 A 
ATOM     23  C   UNL     1       1.281   2.929   0.339  0.00  0.00    +0.000 A 
ATOM     24  C   UNL     1       2.524   2.346   0.591  0.00  0.00    +0.000 A 
BRANCH  20  25
ATOM     25  S   UNL     1       4.133   0.379   1.628  0.00  0.00    +0.000 S 
ATOM     26  O   UNL     1       4.826   0.242   0.363  0.00  0.00    +0.000 OA
ATOM     27  O   UNL     1       3.855  -0.781   2.456  0.00  0.00    +0.000 OA
BRANCH  25  28
ATOM     28  C   UNL     1       5.002   1.585   2.604  0.00  0.00    +0.000 C 
ATOM     29  C   UNL     1       4.267   1.872   3.896  0.00  0.00    +0.000 C 
ENDBRANCH  25  28
ENDBRANCH  20  25
BRANCH  21  30
ATOM     30  O   UNL     1      -0.993   0.602   2.055  0.00  0.00    +0.000 OA
ATOM     31  C   UNL     1      -1.220   0.664   3.462  0.00  0.00    +0.000 C 
ENDBRANCH  21  30
ENDBRANCH   2  19
TORSDOF 6
ENDMDL
MODEL 13
REMARK VINA RESULT:     0.000      5.266      7.885
REMARK INTER + INTRA:          -1.335
REMARK INTER:                   0.000
REMARK INTRA:                  -1.335
REMARK UNBOUND:                -1.336
REMARK  Name = 76287260
REMARK  9 active torsions:
REMARK  status: ('A' for Active; 'I' for Inactive)
REMARK    1  A    between atoms: S_1  and  C_11
REMARK    2  A    between atoms: S_1  and  C_20
REMARK    3  A    between atoms: O_3  and  C_16
REMARK    4  A    between atoms: O_3  and  C_31
REMARK    5  A    between atoms: N_6  and  C_24
REMARK    6  A    between atoms: C_10  and  C_12
REMARK    7  A    between atoms: C_13  and  C_14
REMARK    8  A    between atoms: C_20  and  C_29
REMARK    9  A    between atoms: C_24  and  C_30
REMARK                            x       y       z     vdW  Elec       q    Type
REMARK                         _______ _______ _______ _____ _____    ______ ____
ROOT
ATOM      1  F   UNL     1      -5.703   2.731  -2.042  0.00  0.00    +0.000 F 
ATOM      2  C   UNL     1      -3.615   1.645  -1.604  0.00  0.00    +0.000 A 
ATOM      3  C   UNL     1      -1.570   3.038  -1.894  0.00  0.00    +0.000 A 
ATOM      4  C   UNL     1      -2.217   1.828  -1.543  0.00  0.00    +0.000 A 
ATOM      5  C   UNL     1      -4.362   2.776  -1.980  0.00  0.00    +0.000 A 
ATOM      6  C   UNL     1      -2.383   4.110  -2.297  0.00  0.00    +0.000 A 
ATOM      7  C   UNL     1      -3.767   3.987  -2.319  0.00  0.00    +0.000 A 
ENDROOT
BRANCH   3  12
ATOM      8  N   UNL     1       2.647   2.370  -3.877  0.00  0.00    +0.000 N 
ATOM      9  N   UNL     1       0.457   2.081  -4.082  0.00  0.00    +0.000 NA
ATOM     10  N   UNL     1       2.729   3.461  -1.705  0.00  0.00    +0.000 NA
ATOM     11  N   UNL     1       1.964   3.901  -0.729  0.00  0.00    +0.000 NA
ATOM     12  C   UNL     1      -0.106   3.180  -1.855  0.00  0.00    +0.000 A 
ATOM     13  C   UNL     1       0.728   2.717  -2.885  0.00  0.00    +0.000 A 
ATOM     14  C   UNL     1       2.097   2.890  -2.744  0.00  0.00    +0.000 A 
ATOM     15  C   UNL     1       1.629   1.900  -4.654  0.00  0.00    +0.000 A 
ATOM     16  C   UNL     1       0.609   3.768  -0.808  0.00  0.00    +0.000 A 
BRANCH   8  17
ATOM     17  C   UNL     1       4.055   2.310  -4.199  0.00  0.00    +0.000 C 
ATOM     18  C   UNL     1       4.706   1.033  -3.698  0.00  0.00    +0.000 C 
ENDBRANCH   8  17
ENDBRANCH   3  12
BRANCH   2  19
ATOM     19  C   UNL     1      -4.270   0.328  -1.321  0.00  0.00    +0.000 A 
ATOM     20  C   UNL     1      -5.697  -2.019  -0.646  0.00  0.00    +0.000 A 
ATOM     21  C   UNL     1      -4.692  -0.586  -2.326  0.00  0.00    +0.000 A 
ATOM     22  C   UNL     1      -5.382  -1.757  -1.974  0.00  0.00    +0.000 A 
ATOM     23  C   UNL     1      -4.570  -0.014   0.022  0.00  0.00    +0.000 A 
ATOM     24  C   UNL     1      -5.302  -1.154   0.361  0.00  0.00    +0.000 A 
BRANCH  20  25
ATOM     25  S   UNL     1      -6.606  -3.489  -0.252  0.00  0.00    +0.000 S 
ATOM     26  O   UNL     1      -5.873  -4.199   0.777  0.00  0.00    +0.000 OA
ATOM     27  O   UNL     1      -6.931  -4.130  -1.515  0.00  0.00    +0.000 OA
BRANCH  25  28
ATOM     28  C   UNL     1      -8.103  -2.860   0.473  0.00  0.00    +0.000 C 
ATOM     29  C   UNL     1      -8.867  -2.001  -0.512  0.00  0.00    +0.000 C 
ENDBRANCH  25  28
ENDBRANCH  20  25
BRANCH  21  30
ATOM     30  O   UNL     1      -4.393  -0.307  -3.640  0.00  0.00    +0.000 OA
ATOM     31  C   UNL     1      -5.468   0.100  -4.486  0.00  0.00    +0.000 C 
ENDBRANCH  21  30
ENDBRANCH   2  19
TORSDOF 6
ENDMDL
MODEL 14
REMARK VINA RESULT:     0.000      1.965      2.191
REMARK INTER + INTRA:          -1.335
REMARK INTER:                   0.000
REMARK INTRA:                  -1.335
REMARK UNBOUND:                -1.336
REMARK  Name = 76287260
REMARK  9 active torsions:
REMARK  status: ('A' for Active; 'I' for Inactive)
REMARK    1  A    between atoms: S_1  and  C_11
REMARK    2  A    between atoms: S_1  and  C_20
REMARK    3  A    between atoms: O_3  and  C_16
REMARK    4  A    between atoms: O_3  and  C_31
REMARK    5  A    between atoms: N_6  and  C_24
REMARK    6  A    between atoms: C_10  and  C_12
REMARK    7  A    between atoms: C_13  and  C_14
REMARK    8  A    between atoms: C_20  and  C_29
REMARK    9  A    between atoms: C_24  and  C_30
REMARK                            x       y       z     vdW  Elec       q    Type
REMARK                         _______ _______ _______ _____ _____    ______ ____
ROOT
ATOM      1  F   UNL     1      -2.694  -5.663  -1.800  0.00  0.00    +0.000 F 
ATOM      2  C   UNL     1      -3.031  -3.306  -1.558  0.00  0.00    +0.000 A 
ATOM      3  C   UNL     1      -5.367  -2.493  -1.856  0.00  0.00    +0.000 A 
ATOM      4  C   UNL     1      -3.998  -2.278  -1.559  0.00  0.00    +0.000 A 
ATOM      5  C   UNL     1      -3.516  -4.602  -1.808  0.00  0.00    +0.000 A 
ATOM      6  C   UNL     1      -5.767  -3.810  -2.135  0.00  0.00    +0.000 A 
ATOM      7  C   UNL     1      -4.855  -4.858  -2.090  0.00  0.00    +0.000 A 
ENDROOT
BRANCH   3  12
ATOM      8  N   UNL     1      -7.359   1.128  -4.110  0.00  0.00    +0.000 N 
ATOM      9  N   UNL     1      -5.844  -0.489  -4.215  0.00  0.00    +0.000 NA
ATOM     10  N   UNL     1      -8.230   0.747  -1.871  0.00  0.00    +0.000 NA
ATOM     11  N   UNL     1      -8.109  -0.042  -0.825  0.00  0.00    +0.000 NA
ATOM     12  C   UNL     1      -6.341  -1.390  -1.887  0.00  0.00    +0.000 A 
ATOM     13  C   UNL     1      -6.484  -0.537  -2.991  0.00  0.00    +0.000 A 
ATOM     14  C   UNL     1      -7.425   0.480  -2.914  0.00  0.00    +0.000 A 
ATOM     15  C   UNL     1      -6.402   0.514  -4.862  0.00  0.00    +0.000 A 
ATOM     16  C   UNL     1      -7.208  -1.065  -0.840  0.00  0.00    +0.000 A 
BRANCH   8  17
ATOM     17  C   UNL     1      -8.146   2.272  -4.511  0.00  0.00    +0.000 C 
ATOM     18  C   UNL     1      -7.488   3.586  -4.130  0.00  0.00    +0.000 C 
ENDBRANCH   8  17
ENDBRANCH   3  12
BRANCH   2  19
ATOM     19  C   UNL     1      -1.573  -3.042  -1.336  0.00  0.00    +0.000 A 
ATOM     20  C   UNL     1       1.181  -2.765  -0.758  0.00  0.00    +0.000 A 
ATOM     21  C   UNL     1      -0.614  -2.937  -2.382  0.00  0.00    +0.000 A 
ATOM     22  C   UNL     1       0.749  -2.780  -2.079  0.00  0.00    +0.000 A 
ATOM     23  C   UNL     1      -1.084  -2.967  -0.008  0.00  0.00    +0.000 A 
ATOM     24  C   UNL     1       0.277  -2.863   0.287  0.00  0.00    +0.000 A 
BRANCH  20  25
ATOM     25  S   UNL     1       2.916  -2.607  -0.424  0.00  0.00    +0.000 S 
ATOM     26  O   UNL     1       3.087  -1.511   0.509  0.00  0.00    +0.000 OA
ATOM     27  O   UNL     1       3.591  -2.605  -1.710  0.00  0.00    +0.000 OA
BRANCH  25  28
ATOM     28  C   UNL     1       3.306  -4.120   0.426  0.00  0.00    +0.000 C 
ATOM     29  C   UNL     1       3.033  -5.323  -0.450  0.00  0.00    +0.000 C 
ENDBRANCH  25  28
ENDBRANCH  20  25
BRANCH  21  30
ATOM     30  O   UNL     1      -1.050  -2.974  -3.686  0.00  0.00    +0.000 OA
ATOM     31  C   UNL     1      -0.771  -4.153  -4.439  0.00  0.00    +0.000 C 
ENDBRANCH  21  30
ENDBRANCH   2  19
TORSDOF 6
ENDMDL
MODEL 15
REMARK VINA RESULT:     0.000      4.982      8.945
REMARK INTER + INTRA:          -1.335
REMARK INTER:                   0.000
REMARK INTRA:                  -1.335
REMARK UNBOUND:                -1.336
REMARK  Name = 76287260
REMARK  9 active torsions:
REMARK  status: ('A' for Active; 'I' for Inactive)
REMARK    1  A    between atoms: S_1  and  C_11
REMARK    2  A    between atoms: S_1  and  C_20
REMARK    3  A    between atoms: O_3  and  C_16
REMARK    4  A    between atoms: O_3  and  C_31
REMARK    5  A    between atoms: N_6  and  C_24
REMARK    6  A    between atoms: C_10  and  C_12
REMARK    7  A    between atoms: C_13  and  C_14
REMARK    8  A    between atoms: C_20  and  C_29
REMARK    9  A    between atoms: C_24  and  C_30
REMARK                            x       y       z     vdW  Elec       q    Type
REMARK                         _______ _______ _______ _____ _____    ______ ____
ROOT
ATOM      1  F   UNL     1      -4.574  -3.951  -2.515  0.00  0.00    +0.000 F 
ATOM      2  C   UNL     1      -2.928  -2.472  -1.604  0.00  0.00    +0.000 A 
ATOM      3  C   UNL     1      -0.711  -3.483  -1.083  0.00  0.00    +0.000 A 
ATOM      4  C   UNL     1      -1.592  -2.375  -1.160  0.00  0.00    +0.000 A 
ATOM      5  C   UNL     1      -3.335  -3.745  -2.041  0.00  0.00    +0.000 A 
ATOM      6  C   UNL     1      -1.204  -4.729  -1.501  0.00  0.00    +0.000 A 
ATOM      7  C   UNL     1      -2.498  -4.855  -1.995  0.00  0.00    +0.000 A 
ENDROOT
BRANCH   3  12
ATOM      8  N   UNL     1       2.299  -3.201   2.526  0.00  0.00    +0.000 N 
ATOM      9  N   UNL     1       0.175  -3.403   1.921  0.00  0.00    +0.000 NA
ATOM     10  N   UNL     1       3.352  -3.066   0.337  0.00  0.00    +0.000 NA
ATOM     11  N   UNL     1       3.087  -3.090  -0.952  0.00  0.00    +0.000 NA
ATOM     12  C   UNL     1       0.665  -3.351  -0.577  0.00  0.00    +0.000 A 
ATOM     13  C   UNL     1       0.969  -3.322   0.792  0.00  0.00    +0.000 A 
ATOM     14  C   UNL     1       2.299  -3.183   1.163  0.00  0.00    +0.000 A 
ATOM     15  C   UNL     1       1.007  -3.338   2.939  0.00  0.00    +0.000 A 
ATOM     16  C   UNL     1       1.801  -3.231  -1.383  0.00  0.00    +0.000 A 
BRANCH   8  17
ATOM     17  C   UNL     1       3.455  -3.081   3.385  0.00  0.00    +0.000 C 
ATOM     18  C   UNL     1       3.763  -1.636   3.738  0.00  0.00    +0.000 C 
ENDBRANCH   8  17
ENDBRANCH   3  12
BRANCH   2  19
ATOM     19  C   UNL     1      -3.871  -1.308  -1.586  0.00  0.00    +0.000 A 
ATOM     20  C   UNL     1      -5.735   0.808  -1.801  0.00  0.00    +0.000 A 
ATOM     21  C   UNL     1      -4.838  -1.081  -0.568  0.00  0.00    +0.000 A 
ATOM     22  C   UNL     1      -5.745  -0.014  -0.680  0.00  0.00    +0.000 A 
ATOM     23  C   UNL     1      -3.870  -0.409  -2.682  0.00  0.00    +0.000 A 
ATOM     24  C   UNL     1      -4.807   0.618  -2.811  0.00  0.00    +0.000 A 
BRANCH  20  25
ATOM     25  S   UNL     1      -6.926   2.117  -1.917  0.00  0.00    +0.000 S 
ATOM     26  O   UNL     1      -6.207   3.344  -2.190  0.00  0.00    +0.000 OA
ATOM     27  O   UNL     1      -7.790   2.000  -0.755  0.00  0.00    +0.000 OA
BRANCH  25  28
ATOM     28  C   UNL     1      -7.859   1.690  -3.370  0.00  0.00    +0.000 C 
ATOM     29  C   UNL     1      -8.544   0.351  -3.203  0.00  0.00    +0.000 C 
ENDBRANCH  25  28
ENDBRANCH  20  25
BRANCH  21  30
ATOM     30  O   UNL     1      -4.853  -1.912   0.527  0.00  0.00    +0.000 OA
ATOM     31  C   UNL     1      -5.927  -2.846   0.630  0.00  0.00    +0.000 C 
ENDBRANCH  21  30
ENDBRANCH   2  19
TORSDOF 6
ENDMDL
MODEL 16
REMARK VINA RESULT:     0.000      2.505      3.066
REMARK INTER + INTRA:          -1.335
REMARK INTER:                   0.000
REMARK INTRA:                  -1.335
REMARK UNBOUND:                -1.336
REMARK  Name = 76287260
REMARK  9 active torsions:
REMARK  status: ('A' for Active; 'I' for Inactive)
REMARK    1  A    between atoms: S_1  and  C_11
REMARK    2  A    between atoms: S_1  and  C_20
REMARK    3  A    between atoms: O_3  and  C_16
REMARK    4  A    between atoms: O_3  and  C_31
REMARK    5  A    between atoms: N_6  and  C_24
REMARK    6  A    between atoms: C_10  and  C_12
REMARK    7  A    between atoms: C_13  and  C_14
REMARK    8  A    between atoms: C_20  and  C_29
REMARK    9  A    between atoms: C_24  and  C_30
REMARK                            x       y       z     vdW  Elec       q    Type
REMARK                         _______ _______ _______ _____ _____    ______ ____
ROOT
ATOM      1  F   UNL     1       0.184  -3.296   0.883  0.00  0.00    +0.000 F 
ATOM      2  C   UNL     1      -1.065  -1.639  -0.311  0.00  0.00    +0.000 A 
ATOM      3  C   UNL     1      -3.393  -1.237   0.480  0.00  0.00    +0.000 A 
ATOM      4  C   UNL     1      -2.297  -0.952  -0.371  0.00  0.00    +0.000 A 
ATOM      5  C   UNL     1      -0.952  -2.602   0.708  0.00  0.00    +0.000 A 
ATOM      6  C   UNL     1      -3.216  -2.240   1.447  0.00  0.00    +0.000 A 
ATOM      7  C   UNL     1      -1.999  -2.901   1.574  0.00  0.00    +0.000 A 
ENDROOT
BRANCH   3  12
ATOM      8  N   UNL     1      -7.563  -0.672  -1.628  0.00  0.00    +0.000 N 
ATOM      9  N   UNL     1      -5.677  -1.837  -1.577  0.00  0.00    +0.000 NA
ATOM     10  N   UNL     1      -7.134   0.910   0.169  0.00  0.00    +0.000 NA
ATOM     11  N   UNL     1      -6.238   1.242   1.074  0.00  0.00    +0.000 NA
ATOM     12  C   UNL     1      -4.676  -0.526   0.362  0.00  0.00    +0.000 A 
ATOM     13  C   UNL     1      -5.644  -0.864  -0.596  0.00  0.00    +0.000 A 
ATOM     14  C   UNL     1      -6.816  -0.123  -0.630  0.00  0.00    +0.000 A 
ATOM     15  C   UNL     1      -6.846  -1.698  -2.167  0.00  0.00    +0.000 A 
ATOM     16  C   UNL     1      -5.067   0.550   1.165  0.00  0.00    +0.000 A 
BRANCH   8  17
ATOM     17  C   UNL     1      -8.875  -0.240  -2.056  0.00  0.00    +0.000 C 
ATOM     18  C   UNL     1      -8.807   0.821  -3.140  0.00  0.00    +0.000 C 
ENDBRANCH   8  17
ENDBRANCH   3  12
BRANCH   2  19
ATOM     19  C   UNL     1       0.047  -1.389  -1.283  0.00  0.00    +0.000 A 
ATOM     20  C   UNL     1       2.317  -0.928  -2.905  0.00  0.00    +0.000 A 
ATOM     21  C   UNL     1       0.313  -2.205  -2.417  0.00  0.00    +0.000 A 
ATOM     22  C   UNL     1       1.433  -1.952  -3.225  0.00  0.00    +0.000 A 
ATOM     23  C   UNL     1       0.951  -0.326  -1.033  0.00  0.00    +0.000 A 
ATOM     24  C   UNL     1       2.091  -0.112  -1.809  0.00  0.00    +0.000 A 
BRANCH  20  25
ATOM     25  S   UNL     1       3.742  -0.671  -3.930  0.00  0.00    +0.000 S 
ATOM     26  O   UNL     1       3.760   0.725  -4.317  0.00  0.00    +0.000 OA
ATOM     27  O   UNL     1       3.731  -1.724  -4.931  0.00  0.00    +0.000 OA
BRANCH  25  28
ATOM     28  C   UNL     1       5.100  -0.952  -2.816  0.00  0.00    +0.000 C 
ATOM     29  C   UNL     1       5.075  -2.364  -2.272  0.00  0.00    +0.000 C 
ENDBRANCH  25  28
ENDBRANCH  20  25
BRANCH  21  30
ATOM     30  O   UNL     1      -0.557  -3.229  -2.713  0.00  0.00    +0.000 OA
ATOM     31  C   UNL     1      -0.110  -4.562  -2.471  0.00  0.00    +0.000 C 
ENDBRANCH  21  30
ENDBRANCH   2  19
TORSDOF 6
ENDMDL
MODEL 17
REMARK VINA RESULT:     0.001      3.250      4.048
REMARK INTER + INTRA:          -1.335
REMARK INTER:                   0.000
REMARK INTRA:                  -1.335
REMARK UNBOUND:                -1.336
REMARK  Name = 76287260
REMARK  9 active torsions:
REMARK  status: ('A' for Active; 'I' for Inactive)
REMARK    1  A    between atoms: S_1  and  C_11
REMARK    2  A    between atoms: S_1  and  C_20
REMARK    3  A    between atoms: O_3  and  C_16
REMARK    4  A    between atoms: O_3  and  C_31
REMARK    5  A    between atoms: N_6  and  C_24
REMARK    6  A    between atoms: C_10  and  C_12
REMARK    7  A    between atoms: C_13  and  C_14
REMARK    8  A    between atoms: C_20  and  C_29
REMARK    9  A    between atoms: C_24  and  C_30
REMARK                            x       y       z     vdW  Elec       q    Type
REMARK                         _______ _______ _______ _____ _____    ______ ____
ROOT
ATOM      1  F   UNL     1       0.297  -3.878  -4.232  0.00  0.00    +0.000 F 
ATOM      2  C   UNL     1      -1.318  -2.655  -2.957  0.00  0.00    +0.000 A 
ATOM      3  C   UNL     1      -3.683  -2.836  -3.716  0.00  0.00    +0.000 A 
ATOM      4  C   UNL     1      -2.692  -2.367  -2.818  0.00  0.00    +0.000 A 
ATOM      5  C   UNL     1      -0.976  -3.508  -4.021  0.00  0.00    +0.000 A 
ATOM      6  C   UNL     1      -3.259  -3.651  -4.778  0.00  0.00    +0.000 A 
ATOM      7  C   UNL     1      -1.920  -4.001  -4.917  0.00  0.00    +0.000 A 
ENDROOT
BRANCH   3  12
ATOM      8  N   UNL     1      -7.217   0.215  -4.323  0.00  0.00    +0.000 N 
ATOM      9  N   UNL     1      -5.053  -0.170  -4.624  0.00  0.00    +0.000 NA
ATOM     10  N   UNL     1      -7.863  -1.850  -3.210  0.00  0.00    +0.000 NA
ATOM     11  N   UNL     1      -7.387  -3.003  -2.793  0.00  0.00    +0.000 NA
ATOM     12  C   UNL     1      -5.104  -2.483  -3.563  0.00  0.00    +0.000 A 
ATOM     13  C   UNL     1      -5.632  -1.258  -3.999  0.00  0.00    +0.000 A 
ATOM     14  C   UNL     1      -6.983  -1.020  -3.797  0.00  0.00    +0.000 A 
ATOM     15  C   UNL     1      -6.035   0.688  -4.811  0.00  0.00    +0.000 A 
ATOM     16  C   UNL     1      -6.068  -3.303  -2.968  0.00  0.00    +0.000 A 
BRANCH   8  17
ATOM     17  C   UNL     1      -8.483   0.912  -4.348  0.00  0.00    +0.000 C 
ATOM     18  C   UNL     1      -8.695   1.767  -3.111  0.00  0.00    +0.000 C 
ENDBRANCH   8  17
ENDBRANCH   3  12
BRANCH   2  19
ATOM     19  C   UNL     1      -0.276  -2.071  -2.053  0.00  0.00    +0.000 A 
ATOM     20  C   UNL     1       1.808  -1.215  -0.342  0.00  0.00    +0.000 A 
ATOM     21  C   UNL     1       0.522  -0.940  -2.382  0.00  0.00    +0.000 A 
ATOM     22  C   UNL     1       1.541  -0.515  -1.514  0.00  0.00    +0.000 A 
ATOM     23  C   UNL     1       0.004  -2.715  -0.822  0.00  0.00    +0.000 A 
ATOM     24  C   UNL     1       1.051  -2.319   0.013  0.00  0.00    +0.000 A 
BRANCH  20  25
ATOM     25  S   UNL     1       3.131  -0.666   0.703  0.00  0.00    +0.000 S 
ATOM     26  O   UNL     1       2.600  -0.515   2.043  0.00  0.00    +0.000 OA
ATOM     27  O   UNL     1       3.767   0.448   0.023  0.00  0.00    +0.000 OA
BRANCH  25  28
ATOM     28  C   UNL     1       4.248  -2.050   0.707  0.00  0.00    +0.000 C 
ATOM     29  C   UNL     1       4.752  -2.346  -0.690  0.00  0.00    +0.000 C 
ENDBRANCH  25  28
ENDBRANCH  20  25
BRANCH  21  30
ATOM     30  O   UNL     1       0.264  -0.267  -3.554  0.00  0.00    +0.000 OA
ATOM     31  C   UNL     1       1.202  -0.416  -4.618  0.00  0.00    +0.000 C 
ENDBRANCH  21  30
ENDBRANCH   2  19
TORSDOF 6
ENDMDL
MODEL 18
REMARK VINA RESULT:     0.001      2.330      2.898
REMARK INTER + INTRA:          -1.335
REMARK INTER:                   0.000
REMARK INTRA:                  -1.335
REMARK UNBOUND:                -1.336
REMARK  Name = 76287260
REMARK  9 active torsions:
REMARK  status: ('A' for Active; 'I' for Inactive)
REMARK    1  A    between atoms: S_1  and  C_11
REMARK    2  A    between atoms: S_1  and  C_20
REMARK    3  A    between atoms: O_3  and  C_16
REMARK    4  A    between atoms: O_3  and  C_31
REMARK    5  A    between atoms: N_6  and  C_24
REMARK    6  A    between atoms: C_10  and  C_12
REMARK    7  A    between atoms: C_13  and  C_14
REMARK    8  A    between atoms: C_20  and  C_29
REMARK    9  A    between atoms: C_24  and  C_30
REMARK                            x       y       z     vdW  Elec       q    Type
REMARK                         _______ _______ _______ _____ _____    ______ ____
ROOT
ATOM      1  F   UNL     1      -1.445  -2.777  -1.891  0.00  0.00    +0.000 F 
ATOM      2  C   UNL     1      -2.443  -1.280  -0.312  0.00  0.00    +0.000 A 
ATOM      3  C   UNL     1      -4.883  -0.860  -0.586  0.00  0.00    +0.000 A 
ATOM      4  C   UNL     1      -3.655  -0.686   0.099  0.00  0.00    +0.000 A 
ATOM      5  C   UNL     1      -2.527  -2.131  -1.429  0.00  0.00    +0.000 A 
ATOM      6  C   UNL     1      -4.878  -1.694  -1.716  0.00  0.00    +0.000 A 
ATOM      7  C   UNL     1      -3.716  -2.340  -2.121  0.00  0.00    +0.000 A 
ENDROOT
BRANCH   3  12
ATOM      8  N   UNL     1      -7.629   2.961  -0.460  0.00  0.00    +0.000 N 
ATOM      9  N   UNL     1      -5.721   2.097  -1.188  0.00  0.00    +0.000 NA
ATOM     10  N   UNL     1      -8.525   1.050   0.748  0.00  0.00    +0.000 NA
ATOM     11  N   UNL     1      -8.269  -0.203   1.056  0.00  0.00    +0.000 NA
ATOM     12  C   UNL     1      -6.120  -0.193  -0.151  0.00  0.00    +0.000 A 
ATOM     13  C   UNL     1      -6.412   1.143  -0.467  0.00  0.00    +0.000 A 
ATOM     14  C   UNL     1      -7.602   1.680   0.003  0.00  0.00    +0.000 A 
ATOM     15  C   UNL     1      -6.485   3.169  -1.172  0.00  0.00    +0.000 A 
ATOM     16  C   UNL     1      -7.120  -0.794   0.620  0.00  0.00    +0.000 A 
BRANCH   8  17
ATOM     17  C   UNL     1      -8.671   3.936  -0.228  0.00  0.00    +0.000 C 
ATOM     18  C   UNL     1      -8.430   4.749   1.031  0.00  0.00    +0.000 C 
ENDBRANCH   8  17
ENDBRANCH   3  12
BRANCH   2  19
ATOM     19  C   UNL     1      -1.137  -1.005   0.370  0.00  0.00    +0.000 A 
ATOM     20  C   UNL     1       1.379  -0.755   1.637  0.00  0.00    +0.000 A 
ATOM     21  C   UNL     1      -0.168  -0.079  -0.107  0.00  0.00    +0.000 A 
ATOM     22  C   UNL     1       1.069   0.048   0.545  0.00  0.00    +0.000 A 
ATOM     23  C   UNL     1      -0.791  -1.761   1.518  0.00  0.00    +0.000 A 
ATOM     24  C   UNL     1       0.461  -1.667   2.130  0.00  0.00    +0.000 A 
BRANCH  20  25
ATOM     25  S   UNL     1       2.970  -0.589   2.401  0.00  0.00    +0.000 S 
ATOM     26  O   UNL     1       2.758  -0.388   3.820  0.00  0.00    +0.000 OA
ATOM     27  O   UNL     1       3.714   0.378   1.613  0.00  0.00    +0.000 OA
BRANCH  25  28
ATOM     28  C   UNL     1       3.700  -2.195   2.176  0.00  0.00    +0.000 C 
ATOM     29  C   UNL     1       3.840  -2.528   0.706  0.00  0.00    +0.000 C 
ENDBRANCH  25  28
ENDBRANCH  20  25
BRANCH  21  30
ATOM     30  O   UNL     1      -0.476   0.696  -1.201  0.00  0.00    +0.000 OA
ATOM     31  C   UNL     1       0.177   0.386  -2.431  0.00  0.00    +0.000 C 
ENDBRANCH  21  30
ENDBRANCH   2  19
TORSDOF 6
ENDMDL
MODEL 19
REMARK VINA RESULT:     0.001      4.810      8.651
REMARK INTER + INTRA:          -1.335
REMARK INTER:                   0.000
REMARK INTRA:                  -1.335
REMARK UNBOUND:                -1.336
REMARK  Name = 76287260
REMARK  9 active torsions:
REMARK  status: ('A' for Active; 'I' for Inactive)
REMARK    1  A    between atoms: S_1  and  C_11
REMARK    2  A    between atoms: S_1  and  C_20
REMARK    3  A    between atoms: O_3  and  C_16
REMARK    4  A    between atoms: O_3  and  C_31
REMARK    5  A    between atoms: N_6  and  C_24
REMARK    6  A    between atoms: C_10  and  C_12
REMARK    7  A    between atoms: C_13  and  C_14
REMARK    8  A    between atoms: C_20  and  C_29
REMARK    9  A    between atoms: C_24  and  C_30
REMARK                            x       y       z     vdW  Elec       q    Type
REMARK                         _______ _______ _______ _____ _____    ______ ____
ROOT
ATOM      1  F   UNL     1      -6.281  -2.541  -2.507  0.00  0.00    +0.000 F 
ATOM      2  C   UNL     1      -4.194  -1.515  -1.940  0.00  0.00    +0.000 A 
ATOM      3  C   UNL     1      -2.474  -3.008  -0.931  0.00  0.00    +0.000 A 
ATOM      4  C   UNL     1      -2.902  -1.751  -1.424  0.00  0.00    +0.000 A 
ATOM      5  C   UNL     1      -5.040  -2.637  -2.004  0.00  0.00    +0.000 A 
ATOM      6  C   UNL     1      -3.390  -4.071  -0.993  0.00  0.00    +0.000 A 
ATOM      7  C   UNL     1      -4.654  -3.892  -1.544  0.00  0.00    +0.000 A 
ENDROOT
BRANCH   3  12
ATOM      8  N   UNL     1       0.520  -2.654   2.684  0.00  0.00    +0.000 N 
ATOM      9  N   UNL     1      -1.549  -2.290   1.974  0.00  0.00    +0.000 NA
ATOM     10  N   UNL     1       1.501  -3.595   0.666  0.00  0.00    +0.000 NA
ATOM     11  N   UNL     1       1.215  -3.934  -0.572  0.00  0.00    +0.000 NA
ATOM     12  C   UNL     1      -1.131  -3.207  -0.364  0.00  0.00    +0.000 A 
ATOM     13  C   UNL     1      -0.804  -2.852   0.954  0.00  0.00    +0.000 A 
ATOM     14  C   UNL     1       0.495  -3.071   1.387  0.00  0.00    +0.000 A 
ATOM     15  C   UNL     1      -0.725  -2.197   2.997  0.00  0.00    +0.000 A 
ATOM     16  C   UNL     1      -0.046  -3.751  -1.058  0.00  0.00    +0.000 A 
BRANCH   8  17
ATOM     17  C   UNL     1       1.662  -2.675   3.570  0.00  0.00    +0.000 C 
ATOM     18  C   UNL     1       2.474  -1.394   3.494  0.00  0.00    +0.000 C 
ENDBRANCH   8  17
ENDBRANCH   3  12
BRANCH   2  19
ATOM     19  C   UNL     1      -4.658  -0.156  -2.367  0.00  0.00    +0.000 A 
ATOM     20  C   UNL     1      -5.646   2.289  -3.389  0.00  0.00    +0.000 A 
ATOM     21  C   UNL     1      -5.457   0.702  -1.562  0.00  0.00    +0.000 A 
ATOM     22  C   UNL     1      -5.925   1.922  -2.077  0.00  0.00    +0.000 A 
ATOM     23  C   UNL     1      -4.359   0.290  -3.678  0.00  0.00    +0.000 A 
ATOM     24  C   UNL     1      -4.870   1.480  -4.202  0.00  0.00    +0.000 A 
BRANCH  20  25
ATOM     25  S   UNL     1      -6.293   3.819  -4.009  0.00  0.00    +0.000 S 
ATOM     26  O   UNL     1      -5.188   4.568  -4.573  0.00  0.00    +0.000 OA
ATOM     27  O   UNL     1      -7.115   4.384  -2.954  0.00  0.00    +0.000 OA
BRANCH  25  28
ATOM     28  C   UNL     1      -7.347   3.304  -5.345  0.00  0.00    +0.000 C 
ATOM     29  C   UNL     1      -8.463   2.411  -4.845  0.00  0.00    +0.000 C 
ENDBRANCH  25  28
ENDBRANCH  20  25
BRANCH  21  30
ATOM     30  O   UNL     1      -5.744   0.321  -0.272  0.00  0.00    +0.000 OA
ATOM     31  C   UNL     1      -7.079  -0.099   0.008  0.00  0.00    +0.000 C 
ENDBRANCH  21  30
ENDBRANCH   2  19
TORSDOF 6
ENDMDL
MODEL 20
REMARK VINA RESULT:     0.001      6.067      8.501
REMARK INTER + INTRA:          -1.334
REMARK INTER:                   0.000
REMARK INTRA:                  -1.334
REMARK UNBOUND:                -1.336
REMARK  Name = 76287260
REMARK  9 active torsions:
REMARK  status: ('A' for Active; 'I' for Inactive)
REMARK    1  A    between atoms: S_1  and  C_11
REMARK    2  A    between atoms: S_1  and  C_20
REMARK    3  A    between atoms: O_3  and  C_16
REMARK    4  A    between atoms: O_3  and  C_31
REMARK    5  A    between atoms: N_6  and  C_24
REMARK    6  A    between atoms: C_10  and  C_12
REMARK    7  A    between atoms: C_13  and  C_14
REMARK    8  A    between atoms: C_20  and  C_29
REMARK    9  A    between atoms: C_24  and  C_30
REMARK                            x       y       z     vdW  Elec       q    Type
REMARK                         _______ _______ _______ _____ _____    ______ ____
ROOT
ATOM      1  F   UNL     1      -2.896   1.476   3.990  0.00  0.00    +0.000 F 
ATOM      2  C   UNL     1      -1.424   1.255   2.116  0.00  0.00    +0.000 A 
ATOM      3  C   UNL     1       0.839   2.266   2.371  0.00  0.00    +0.000 A 
ATOM      4  C   UNL     1      -0.124   1.529   1.638  0.00  0.00    +0.000 A 
ATOM      5  C   UNL     1      -1.704   1.707   3.418  0.00  0.00    +0.000 A 
ATOM      6  C   UNL     1       0.471   2.717   3.649  0.00  0.00    +0.000 A 
ATOM      7  C   UNL     1      -0.782   2.422   4.176  0.00  0.00    +0.000 A 
ENDROOT
BRANCH   3  12
ATOM      8  N   UNL     1       3.630   4.890  -0.365  0.00  0.00    +0.000 N 
ATOM      9  N   UNL     1       1.563   4.564   0.369  0.00  0.00    +0.000 NA
ATOM     10  N   UNL     1       4.777   3.077   0.781  0.00  0.00    +0.000 NA
ATOM     11  N   UNL     1       4.580   2.084   1.621  0.00  0.00    +0.000 NA
ATOM     12  C   UNL     1       2.172   2.566   1.825  0.00  0.00    +0.000 A 
ATOM     13  C   UNL     1       2.404   3.620   0.927  0.00  0.00    +0.000 A 
ATOM     14  C   UNL     1       3.697   3.810   0.462  0.00  0.00    +0.000 A 
ATOM     15  C   UNL     1       2.334   5.314  -0.390  0.00  0.00    +0.000 A 
ATOM     16  C   UNL     1       3.334   1.847   2.121  0.00  0.00    +0.000 A 
BRANCH   8  17
ATOM     17  C   UNL     1       4.728   5.477  -1.100  0.00  0.00    +0.000 C 
ATOM     18  C   UNL     1       4.899   4.855  -2.475  0.00  0.00    +0.000 C 
ENDBRANCH   8  17
ENDBRANCH   3  12
BRANCH   2  19
ATOM     19  C   UNL     1      -2.458   0.558   1.287  0.00  0.00    +0.000 A 
ATOM     20  C   UNL     1      -4.475  -0.902  -0.054  0.00  0.00    +0.000 A 
ATOM     21  C   UNL     1      -3.492   1.226   0.573  0.00  0.00    +0.000 A 
ATOM     22  C   UNL     1      -4.475   0.487  -0.104  0.00  0.00    +0.000 A 
ATOM     23  C   UNL     1      -2.475  -0.860   1.261  0.00  0.00    +0.000 A 
ATOM     24  C   UNL     1      -3.484  -1.588   0.629  0.00  0.00    +0.000 A 
BRANCH  20  25
ATOM     25  S   UNL     1      -5.761  -1.792  -0.890  0.00  0.00    +0.000 S 
ATOM     26  O   UNL     1      -5.131  -2.774  -1.749  0.00  0.00    +0.000 OA
ATOM     27  O   UNL     1      -6.671  -0.799  -1.434  0.00  0.00    +0.000 OA
BRANCH  25  28
ATOM     28  C   UNL     1      -6.580  -2.659   0.429  0.00  0.00    +0.000 C 
ATOM     29  C   UNL     1      -7.162  -1.692   1.438  0.00  0.00    +0.000 C 
ENDBRANCH  25  28
ENDBRANCH  20  25
BRANCH  21  30
ATOM     30  O   UNL     1      -3.495   2.601   0.547  0.00  0.00    +0.000 OA
ATOM     31  C   UNL     1      -4.493   3.270   1.316  0.00  0.00    +0.000 C 
ENDBRANCH  21  30
ENDBRANCH   2  19
TORSDOF 6
ENDMDL
