MODEL 1
REMARK VINA RESULT:     0.000      0.000      0.000
REMARK INTER + INTRA:          -2.475
REMARK INTER:                   0.000
REMARK INTRA:                  -2.475
REMARK UNBOUND:                -2.475
REMARK  Name = 68748835
REMARK  6 active torsions:
REMARK  status: ('A' for Active; 'I' for Inactive)
REMARK    1  A    between atoms: N_7  and  C_28
REMARK    2  A    between atoms: N_9  and  C_18
REMARK    3  A    between atoms: C_13  and  C_24
REMARK    4  A    between atoms: C_16  and  C_26
REMARK    5  A    between atoms: C_28  and  C_35
REMARK    6  A    between atoms: C_29  and  C_31
REMARK                            x       y       z     vdW  Elec       q    Type
REMARK                         _______ _______ _______ _____ _____    ______ ____
ROOT
ATOM      1  O   UNL     1      -2.034  -4.714   1.100  0.00  0.00    +0.000 OA
ATOM      2  N   UNL     1      -0.645  -3.144   0.178  0.00  0.00    +0.000 N 
ATOM      3  C   UNL     1      -1.668  -3.555   0.987  0.00  0.00    +0.000 C 
ATOM      4  H   UNL     1      -0.228  -2.251   0.411  0.00  0.00    +0.000 HD
ENDROOT
BRANCH   3  18
ATOM      5  O   UNL     1      -1.936   2.962   3.925  0.00  0.00    +0.000 OA
ATOM      6  N   UNL     1      -3.939   4.080   3.608  0.00  0.00    +0.000 N 
ATOM      7  N   UNL     1      -3.411  -1.763   3.804  0.00  0.00    +0.000 NA
ATOM      8  N   UNL     1      -6.188   4.663   3.009  0.00  0.00    +0.000 NA
ATOM      9  C   UNL     1      -3.909   1.800   2.986  0.00  0.00    +0.000 C 
ATOM     10  C   UNL     1      -3.207   1.268   1.716  0.00  0.00    +0.000 C 
ATOM     11  C   UNL     1      -4.010   0.662   4.027  0.00  0.00    +0.000 C 
ATOM     12  C   UNL     1      -2.985  -0.170   2.039  0.00  0.00    +0.000 A 
ATOM     13  C   UNL     1      -5.236   2.458   2.708  0.00  0.00    +0.000 A 
ATOM     14  C   UNL     1      -3.455  -0.519   3.294  0.00  0.00    +0.000 A 
ATOM     15  C   UNL     1      -3.103   2.980   3.570  0.00  0.00    +0.000 C 
ATOM     16  C   UNL     1      -5.187   3.787   3.104  0.00  0.00    +0.000 A 
ATOM     17  C   UNL     1      -2.386  -1.137   1.260  0.00  0.00    +0.000 A 
ATOM     18  C   UNL     1      -2.303  -2.449   1.757  0.00  0.00    +0.000 A 
ATOM     19  C   UNL     1      -6.406   1.962   2.166  0.00  0.00    +0.000 A 
ATOM     20  C   UNL     1      -2.839  -2.711   3.012  0.00  0.00    +0.000 A 
ATOM     21  C   UNL     1      -7.483   2.842   2.051  0.00  0.00    +0.000 A 
ATOM     22  C   UNL     1      -7.329   4.161   2.482  0.00  0.00    +0.000 A 
ATOM     23  H   UNL     1      -3.678   4.994   3.944  0.00  0.00    +0.000 HD
ENDBRANCH   3  18
BRANCH   2  29
ATOM     24  O   UNL     1       1.721  -4.668   1.018  0.00  0.00    +0.000 OA
ATOM     25  N   UNL     1       2.195  -2.749  -0.142  0.00  0.00    +0.000 N 
ATOM     26  C   UNL     1       1.045  -2.146  -2.311  0.00  0.00    +0.000 C 
ATOM     27  C   UNL     1       2.386  -2.242  -1.510  0.00  0.00    +0.000 C 
ATOM     28  C   UNL     1       0.271  -3.474  -2.151  0.00  0.00    +0.000 C 
ATOM     29  C   UNL     1       0.163  -3.979  -0.713  0.00  0.00    +0.000 C 
ATOM     30  C   UNL     1       1.508  -3.951   0.041  0.00  0.00    +0.000 C 
ATOM     31  C   UNL     1       3.279  -1.006  -1.640  0.00  0.00    +0.000 C 
BRANCH  26  32
ATOM     32  C   UNL     1       0.186  -0.897  -2.121  0.00  0.00    +0.000 A 
ATOM     33  C   UNL     1      -1.208  -0.974  -2.265  0.00  0.00    +0.000 A 
ATOM     34  C   UNL     1       0.727   0.367  -1.870  0.00  0.00    +0.000 A 
ATOM     35  C   UNL     1      -1.999   0.183  -2.243  0.00  0.00    +0.000 A 
ATOM     36  C   UNL     1      -0.051   1.522  -1.848  0.00  0.00    +0.000 A 
ATOM     37  C   UNL     1      -1.415   1.435  -2.058  0.00  0.00    +0.000 A 
ENDBRANCH  26  32
BRANCH  25  38
ATOM     38  C   UNL     1       2.597  -2.017   1.077  0.00  0.00    +0.000 C 
BRANCH  38  42
ATOM     39  F   UNL     1       0.822  -1.964   2.676  0.00  0.00    +0.000 F 
ATOM     40  F   UNL     1       0.732  -0.554   1.003  0.00  0.00    +0.000 F 
ATOM     41  F   UNL     1       2.193  -0.264   2.587  0.00  0.00    +0.000 F 
ATOM     42  C   UNL     1       1.560  -1.210   1.845  0.00  0.00    +0.000 C 
ENDBRANCH  38  42
ENDBRANCH  25  38
ENDBRANCH   2  29
TORSDOF 5
ENDMDL
MODEL 2
REMARK VINA RESULT:     0.000      1.882      2.045
REMARK INTER + INTRA:          -2.475
REMARK INTER:                   0.000
REMARK INTRA:                  -2.475
REMARK UNBOUND:                -2.475
REMARK  Name = 68748835
REMARK  6 active torsions:
REMARK  status: ('A' for Active; 'I' for Inactive)
REMARK    1  A    between atoms: N_7  and  C_28
REMARK    2  A    between atoms: N_9  and  C_18
REMARK    3  A    between atoms: C_13  and  C_24
REMARK    4  A    between atoms: C_16  and  C_26
REMARK    5  A    between atoms: C_28  and  C_35
REMARK    6  A    between atoms: C_29  and  C_31
REMARK                            x       y       z     vdW  Elec       q    Type
REMARK                         _______ _______ _______ _____ _____    ______ ____
ROOT
ATOM      1  O   UNL     1      -2.590  -4.706  -0.097  0.00  0.00    +0.000 OA
ATOM      2  N   UNL     1      -1.068  -3.229  -0.963  0.00  0.00    +0.000 N 
ATOM      3  C   UNL     1      -2.219  -3.562  -0.303  0.00  0.00    +0.000 C 
ATOM      4  H   UNL     1      -0.709  -2.300  -0.787  0.00  0.00    +0.000 HD
ENDROOT
BRANCH   3  18
ATOM      5  O   UNL     1      -3.075   3.281   1.599  0.00  0.00    +0.000 OA
ATOM      6  N   UNL     1      -4.995   4.278   0.773  0.00  0.00    +0.000 N 
ATOM      7  N   UNL     1      -4.464  -1.463   1.876  0.00  0.00    +0.000 NA
ATOM      8  N   UNL     1      -7.101   4.698  -0.297  0.00  0.00    +0.000 NA
ATOM      9  C   UNL     1      -4.833   1.936   0.492  0.00  0.00    +0.000 C 
ATOM     10  C   UNL     1      -3.906   1.261  -0.544  0.00  0.00    +0.000 C 
ATOM     11  C   UNL     1      -5.114   0.948   1.646  0.00  0.00    +0.000 C 
ATOM     12  C   UNL     1      -3.735  -0.111   0.011  0.00  0.00    +0.000 A 
ATOM     13  C   UNL     1      -6.092   2.506  -0.110  0.00  0.00    +0.000 A 
ATOM     14  C   UNL     1      -4.424  -0.303   1.197  0.00  0.00    +0.000 A 
ATOM     15  C   UNL     1      -4.157   3.212   1.041  0.00  0.00    +0.000 C 
ATOM     16  C   UNL     1      -6.128   3.878   0.098  0.00  0.00    +0.000 A 
ATOM     17  C   UNL     1      -2.995  -1.155  -0.504  0.00  0.00    +0.000 A 
ATOM     18  C   UNL     1      -2.994  -2.383   0.178  0.00  0.00    +0.000 A 
ATOM     19  C   UNL     1      -7.139   1.902  -0.779  0.00  0.00    +0.000 A 
ATOM     20  C   UNL     1      -3.749  -2.490   1.340  0.00  0.00    +0.000 A 
ATOM     21  C   UNL     1      -8.184   2.721  -1.208  0.00  0.00    +0.000 A 
ATOM     22  C   UNL     1      -8.122   4.091  -0.945  0.00  0.00    +0.000 A 
ATOM     23  H   UNL     1      -4.808   5.237   1.020  0.00  0.00    +0.000 HD
ENDBRANCH   3  18
BRANCH   2  29
ATOM     24  O   UNL     1       1.116  -4.545   0.494  0.00  0.00    +0.000 OA
ATOM     25  N   UNL     1       1.779  -2.786  -0.818  0.00  0.00    +0.000 N 
ATOM     26  C   UNL     1       1.040  -2.523  -3.222  0.00  0.00    +0.000 C 
ATOM     27  C   UNL     1       2.212  -2.464  -2.187  0.00  0.00    +0.000 C 
ATOM     28  C   UNL     1       0.261  -3.842  -3.020  0.00  0.00    +0.000 C 
ATOM     29  C   UNL     1      -0.105  -4.151  -1.569  0.00  0.00    +0.000 C 
ATOM     30  C   UNL     1       1.079  -3.975  -0.596  0.00  0.00    +0.000 C 
ATOM     31  C   UNL     1       3.104  -1.227  -2.325  0.00  0.00    +0.000 C 
BRANCH  26  32
ATOM     32  C   UNL     1       0.150  -1.290  -3.366  0.00  0.00    +0.000 A 
ATOM     33  C   UNL     1      -1.193  -1.432  -3.747  0.00  0.00    +0.000 A 
ATOM     34  C   UNL     1       0.626   0.014  -3.201  0.00  0.00    +0.000 A 
ATOM     35  C   UNL     1      -1.984  -0.310  -4.030  0.00  0.00    +0.000 A 
ATOM     36  C   UNL     1      -0.153   1.135  -3.482  0.00  0.00    +0.000 A 
ATOM     37  C   UNL     1      -1.455   0.974  -3.920  0.00  0.00    +0.000 A 
ENDBRANCH  26  32
BRANCH  25  38
ATOM     38  C   UNL     1       1.944  -1.883   0.338  0.00  0.00    +0.000 C 
BRANCH  38  42
ATOM     39  F   UNL     1      -0.094  -1.672   1.568  0.00  0.00    +0.000 F 
ATOM     40  F   UNL     1       0.112  -0.507  -0.275  0.00  0.00    +0.000 F 
ATOM     41  F   UNL     1       1.256   0.044   1.491  0.00  0.00    +0.000 F 
ATOM     42  C   UNL     1       0.777  -1.014   0.787  0.00  0.00    +0.000 C 
ENDBRANCH  38  42
ENDBRANCH  25  38
ENDBRANCH   2  29
TORSDOF 5
ENDMDL
MODEL 3
REMARK VINA RESULT:     0.000      3.597      6.417
REMARK INTER + INTRA:          -2.474
REMARK INTER:                   0.000
REMARK INTRA:                  -2.474
REMARK UNBOUND:                -2.475
REMARK  Name = 68748835
REMARK  6 active torsions:
REMARK  status: ('A' for Active; 'I' for Inactive)
REMARK    1  A    between atoms: N_7  and  C_28
REMARK    2  A    between atoms: N_9  and  C_18
REMARK    3  A    between atoms: C_13  and  C_24
REMARK    4  A    between atoms: C_16  and  C_26
REMARK    5  A    between atoms: C_28  and  C_35
REMARK    6  A    between atoms: C_29  and  C_31
REMARK                            x       y       z     vdW  Elec       q    Type
REMARK                         _______ _______ _______ _____ _____    ______ ____
ROOT
ATOM      1  O   UNL     1      -5.224  -0.793  -3.029  0.00  0.00    +0.000 OA
ATOM      2  N   UNL     1      -4.151  -1.812  -1.281  0.00  0.00    +0.000 N 
ATOM      3  C   UNL     1      -4.410  -0.764  -2.121  0.00  0.00    +0.000 C 
ATOM      4  H   UNL     1      -3.723  -1.575  -0.396  0.00  0.00    +0.000 HD
ENDROOT
BRANCH   3  18
ATOM      5  O   UNL     1      -0.459   3.511   2.037  0.00  0.00    +0.000 OA
ATOM      6  N   UNL     1       1.405   4.412   0.999  0.00  0.00    +0.000 N 
ATOM      7  N   UNL     1      -3.524   2.883  -1.800  0.00  0.00    +0.000 NA
ATOM      8  N   UNL     1       3.074   5.045  -0.603  0.00  0.00    +0.000 NA
ATOM      9  C   UNL     1      -0.133   3.294  -0.406  0.00  0.00    +0.000 C 
ATOM     10  C   UNL     1      -0.279   1.756  -0.463  0.00  0.00    +0.000 C 
ATOM     11  C   UNL     1      -1.455   3.949  -0.864  0.00  0.00    +0.000 C 
ATOM     12  C   UNL     1      -1.653   1.575  -1.010  0.00  0.00    +0.000 A 
ATOM     13  C   UNL     1       1.067   3.811  -1.157  0.00  0.00    +0.000 A 
ATOM     14  C   UNL     1      -2.293   2.775  -1.267  0.00  0.00    +0.000 A 
ATOM     15  C   UNL     1       0.202   3.731   1.037  0.00  0.00    +0.000 C 
ATOM     16  C   UNL     1       1.921   4.461  -0.278  0.00  0.00    +0.000 A 
ATOM     17  C   UNL     1      -2.320   0.396  -1.270  0.00  0.00    +0.000 A 
ATOM     18  C   UNL     1      -3.614   0.459  -1.814  0.00  0.00    +0.000 A 
ATOM     19  C   UNL     1       1.407   3.742  -2.494  0.00  0.00    +0.000 A 
ATOM     20  C   UNL     1      -4.158   1.711  -2.073  0.00  0.00    +0.000 A 
ATOM     21  C   UNL     1       2.605   4.344  -2.884  0.00  0.00    +0.000 A 
ATOM     22  C   UNL     1       3.390   4.976  -1.918  0.00  0.00    +0.000 A 
ATOM     23  H   UNL     1       1.868   4.813   1.799  0.00  0.00    +0.000 HD
ENDBRANCH   3  18
BRANCH   2  29
ATOM     24  O   UNL     1      -6.721  -2.527  -0.054  0.00  0.00    +0.000 OA
ATOM     25  N   UNL     1      -4.884  -3.254   1.107  0.00  0.00    +0.000 N 
ATOM     26  C   UNL     1      -2.955  -4.455  -0.003  0.00  0.00    +0.000 C 
ATOM     27  C   UNL     1      -3.951  -4.388   1.203  0.00  0.00    +0.000 C 
ATOM     28  C   UNL     1      -3.753  -4.305  -1.318  0.00  0.00    +0.000 C 
ATOM     29  C   UNL     1      -4.750  -3.147  -1.331  0.00  0.00    +0.000 C 
ATOM     30  C   UNL     1      -5.628  -3.091  -0.064  0.00  0.00    +0.000 C 
ATOM     31  C   UNL     1      -3.290  -4.589   2.568  0.00  0.00    +0.000 C 
BRANCH  26  32
ATOM     32  C   UNL     1      -1.694  -3.596   0.063  0.00  0.00    +0.000 A 
ATOM     33  C   UNL     1      -1.107  -3.118  -1.119  0.00  0.00    +0.000 A 
ATOM     34  C   UNL     1      -1.034  -3.306   1.260  0.00  0.00    +0.000 A 
ATOM     35  C   UNL     1       0.129  -2.456  -1.092  0.00  0.00    +0.000 A 
ATOM     36  C   UNL     1       0.195  -2.651   1.296  0.00  0.00    +0.000 A 
ATOM     37  C   UNL     1       0.791  -2.245   0.115  0.00  0.00    +0.000 A 
ENDBRANCH  26  32
BRANCH  25  38
ATOM     38  C   UNL     1      -5.019  -2.203   2.136  0.00  0.00    +0.000 C 
BRANCH  38  42
ATOM     39  F   UNL     1      -4.949  -0.023   1.157  0.00  0.00    +0.000 F 
ATOM     40  F   UNL     1      -3.048  -1.069   1.460  0.00  0.00    +0.000 F 
ATOM     41  F   UNL     1      -4.140  -0.286   3.170  0.00  0.00    +0.000 F 
ATOM     42  C   UNL     1      -4.290  -0.878   1.957  0.00  0.00    +0.000 C 
ENDBRANCH  38  42
ENDBRANCH  25  38
ENDBRANCH   2  29
TORSDOF 5
ENDMDL
MODEL 4
REMARK VINA RESULT:     0.002      3.841      5.928
REMARK INTER + INTRA:          -2.472
REMARK INTER:                   0.000
REMARK INTRA:                  -2.472
REMARK UNBOUND:                -2.475
REMARK  Name = 68748835
REMARK  6 active torsions:
REMARK  status: ('A' for Active; 'I' for Inactive)
REMARK    1  A    between atoms: N_7  and  C_28
REMARK    2  A    between atoms: N_9  and  C_18
REMARK    3  A    between atoms: C_13  and  C_24
REMARK    4  A    between atoms: C_16  and  C_26
REMARK    5  A    between atoms: C_28  and  C_35
REMARK    6  A    between atoms: C_29  and  C_31
REMARK                            x       y       z     vdW  Elec       q    Type
REMARK                         _______ _______ _______ _____ _____    ______ ____
ROOT
ATOM      1  O   UNL     1       1.932   3.668  -3.156  0.00  0.00    +0.000 OA
ATOM      2  N   UNL     1       1.545   2.280  -1.376  0.00  0.00    +0.000 N 
ATOM      3  C   UNL     1       1.171   2.995  -2.481  0.00  0.00    +0.000 C 
ATOM      4  H   UNL     1       0.928   1.525  -1.107  0.00  0.00    +0.000 HD
ENDROOT
BRANCH   3  18
ATOM      5  O   UNL     1      -5.249  -0.157  -2.315  0.00  0.00    +0.000 OA
ATOM      6  N   UNL     1      -7.025   1.290  -1.981  0.00  0.00    +0.000 N 
ATOM      7  N   UNL     1      -1.969   2.800  -4.553  0.00  0.00    +0.000 NA
ATOM      8  N   UNL     1      -8.388   3.243  -1.682  0.00  0.00    +0.000 NA
ATOM      9  C   UNL     1      -4.929   2.295  -2.410  0.00  0.00    +0.000 C 
ATOM     10  C   UNL     1      -3.783   2.358  -1.375  0.00  0.00    +0.000 C 
ATOM     11  C   UNL     1      -4.335   2.384  -3.833  0.00  0.00    +0.000 C 
ATOM     12  C   UNL     1      -2.576   2.547  -2.229  0.00  0.00    +0.000 A 
ATOM     13  C   UNL     1      -6.016   3.308  -2.164  0.00  0.00    +0.000 A 
ATOM     14  C   UNL     1      -2.875   2.598  -3.580  0.00  0.00    +0.000 A 
ATOM     15  C   UNL     1      -5.706   0.971  -2.243  0.00  0.00    +0.000 C 
ATOM     16  C   UNL     1      -7.217   2.654  -1.929  0.00  0.00    +0.000 A 
ATOM     17  C   UNL     1      -1.260   2.665  -1.833  0.00  0.00    +0.000 A 
ATOM     18  C   UNL     1      -0.276   2.863  -2.816  0.00  0.00    +0.000 A 
ATOM     19  C   UNL     1      -5.991   4.690  -2.149  0.00  0.00    +0.000 A 
ATOM     20  C   UNL     1      -0.678   2.939  -4.144  0.00  0.00    +0.000 A 
ATOM     21  C   UNL     1      -7.195   5.351  -1.899  0.00  0.00    +0.000 A 
ATOM     22  C   UNL     1      -8.348   4.595  -1.678  0.00  0.00    +0.000 A 
ATOM     23  H   UNL     1      -7.763   0.622  -1.829  0.00  0.00    +0.000 HD
ENDBRANCH   3  18
BRANCH   2  29
ATOM     24  O   UNL     1       3.677   0.467  -2.267  0.00  0.00    +0.000 OA
ATOM     25  N   UNL     1       2.642  -0.172  -0.325  0.00  0.00    +0.000 N 
ATOM     26  C   UNL     1       2.238   1.423   1.596  0.00  0.00    +0.000 C 
ATOM     27  C   UNL     1       2.712   0.004   1.135  0.00  0.00    +0.000 C 
ATOM     28  C   UNL     1       2.935   2.490   0.722  0.00  0.00    +0.000 C 
ATOM     29  C   UNL     1       2.882   2.217  -0.781  0.00  0.00    +0.000 C 
ATOM     30  C   UNL     1       3.267   0.769  -1.147  0.00  0.00    +0.000 C 
ATOM     31  C   UNL     1       2.139  -1.145   1.968  0.00  0.00    +0.000 C 
BRANCH  26  32
ATOM     32  C   UNL     1       0.740   1.651   1.783  0.00  0.00    +0.000 A 
ATOM     33  C   UNL     1       0.193   2.927   1.580  0.00  0.00    +0.000 A 
ATOM     34  C   UNL     1      -0.132   0.651   2.221  0.00  0.00    +0.000 A 
ATOM     35  C   UNL     1      -1.148   3.193   1.890  0.00  0.00    +0.000 A 
ATOM     36  C   UNL     1      -1.466   0.907   2.534  0.00  0.00    +0.000 A 
ATOM     37  C   UNL     1      -1.971   2.186   2.390  0.00  0.00    +0.000 A 
ENDBRANCH  26  32
BRANCH  25  38
ATOM     38  C   UNL     1       1.862  -1.232  -0.995  0.00  0.00    +0.000 C 
BRANCH  38  42
ATOM     39  F   UNL     1       0.514  -0.333  -2.752  0.00  0.00    +0.000 F 
ATOM     40  F   UNL     1      -0.209  -0.116  -0.696  0.00  0.00    +0.000 F 
ATOM     41  F   UNL     1      -0.231  -2.068  -1.654  0.00  0.00    +0.000 F 
ATOM     42  C   UNL     1       0.477  -0.915  -1.543  0.00  0.00    +0.000 C 
ENDBRANCH  38  42
ENDBRANCH  25  38
ENDBRANCH   2  29
TORSDOF 5
ENDMDL
MODEL 5
REMARK VINA RESULT:     0.002      2.580      3.738
REMARK INTER + INTRA:          -2.472
REMARK INTER:                   0.000
REMARK INTRA:                  -2.472
REMARK UNBOUND:                -2.475
REMARK  Name = 68748835
REMARK  6 active torsions:
REMARK  status: ('A' for Active; 'I' for Inactive)
REMARK    1  A    between atoms: N_7  and  C_28
REMARK    2  A    between atoms: N_9  and  C_18
REMARK    3  A    between atoms: C_13  and  C_24
REMARK    4  A    between atoms: C_16  and  C_26
REMARK    5  A    between atoms: C_28  and  C_35
REMARK    6  A    between atoms: C_29  and  C_31
REMARK                            x       y       z     vdW  Elec       q    Type
REMARK                         _______ _______ _______ _____ _____    ______ ____
ROOT
ATOM      1  O   UNL     1      -0.030  -2.914   2.506  0.00  0.00    +0.000 OA
ATOM      2  N   UNL     1      -0.854  -3.228   0.392  0.00  0.00    +0.000 N 
ATOM      3  C   UNL     1      -0.735  -2.555   1.577  0.00  0.00    +0.000 C 
ATOM      4  H   UNL     1      -1.186  -2.685  -0.394  0.00  0.00    +0.000 HD
ENDROOT
BRANCH   3  18
ATOM      5  O   UNL     1      -4.347   2.953  -1.214  0.00  0.00    +0.000 OA
ATOM      6  N   UNL     1      -6.352   3.425  -0.158  0.00  0.00    +0.000 N 
ATOM      7  N   UNL     1      -1.723   0.965   2.484  0.00  0.00    +0.000 NA
ATOM      8  N   UNL     1      -8.220   3.444   1.349  0.00  0.00    +0.000 NA
ATOM      9  C   UNL     1      -4.944   1.867   0.928  0.00  0.00    +0.000 C 
ATOM     10  C   UNL     1      -4.744   0.413   0.445  0.00  0.00    +0.000 C 
ATOM     11  C   UNL     1      -3.710   2.306   1.748  0.00  0.00    +0.000 C 
ATOM     12  C   UNL     1      -3.436   0.039   1.054  0.00  0.00    +0.000 A 
ATOM     13  C   UNL     1      -6.242   2.083   1.662  0.00  0.00    +0.000 A 
ATOM     14  C   UNL     1      -2.878   1.063   1.802  0.00  0.00    +0.000 A 
ATOM     15  C   UNL     1      -5.127   2.799  -0.290  0.00  0.00    +0.000 C 
ATOM     16  C   UNL     1      -7.014   3.012   0.978  0.00  0.00    +0.000 A 
ATOM     17  C   UNL     1      -2.757  -1.157   0.952  0.00  0.00    +0.000 A 
ATOM     18  C   UNL     1      -1.538  -1.301   1.636  0.00  0.00    +0.000 A 
ATOM     19  C   UNL     1      -6.731   1.537   2.833  0.00  0.00    +0.000 A 
ATOM     20  C   UNL     1      -1.079  -0.230   2.393  0.00  0.00    +0.000 A 
ATOM     21  C   UNL     1      -7.989   1.962   3.263  0.00  0.00    +0.000 A 
ATOM     22  C   UNL     1      -8.682   2.904   2.501  0.00  0.00    +0.000 A 
ATOM     23  H   UNL     1      -6.735   4.091  -0.809  0.00  0.00    +0.000 HD
ENDBRANCH   3  18
BRANCH   2  29
ATOM     24  O   UNL     1       1.868  -3.462  -0.685  0.00  0.00    +0.000 OA
ATOM     25  N   UNL     1       0.209  -3.711  -2.246  0.00  0.00    +0.000 N 
ATOM     26  C   UNL     1      -1.787  -5.223  -1.888  0.00  0.00    +0.000 C 
ATOM     27  C   UNL     1      -0.661  -4.729  -2.857  0.00  0.00    +0.000 C 
ATOM     28  C   UNL     1      -1.154  -5.563  -0.520  0.00  0.00    +0.000 C 
ATOM     29  C   UNL     1      -0.212  -4.493   0.031  0.00  0.00    +0.000 C 
ATOM     30  C   UNL     1       0.805  -3.987  -1.013  0.00  0.00    +0.000 C 
ATOM     31  C   UNL     1      -1.151  -4.419  -4.273  0.00  0.00    +0.000 C 
BRANCH  26  32
ATOM     32  C   UNL     1      -3.065  -4.392  -1.794  0.00  0.00    +0.000 A 
ATOM     33  C   UNL     1      -3.801  -4.369  -0.600  0.00  0.00    +0.000 A 
ATOM     34  C   UNL     1      -3.595  -3.688  -2.879  0.00  0.00    +0.000 A 
ATOM     35  C   UNL     1      -5.051  -3.736  -0.538  0.00  0.00    +0.000 A 
ATOM     36  C   UNL     1      -4.837  -3.059  -2.826  0.00  0.00    +0.000 A 
ATOM     37  C   UNL     1      -5.580  -3.102  -1.660  0.00  0.00    +0.000 A 
ENDBRANCH  26  32
BRANCH  25  38
ATOM     38  C   UNL     1       0.420  -2.359  -2.803  0.00  0.00    +0.000 C 
BRANCH  38  42
ATOM     39  F   UNL     1       0.151  -0.683  -1.121  0.00  0.00    +0.000 F 
ATOM     40  F   UNL     1      -1.659  -1.537  -2.011  0.00  0.00    +0.000 F 
ATOM     41  F   UNL     1      -0.408  -0.193  -3.176  0.00  0.00    +0.000 F 
ATOM     42  C   UNL     1      -0.376  -1.186  -2.249  0.00  0.00    +0.000 C 
ENDBRANCH  38  42
ENDBRANCH  25  38
ENDBRANCH   2  29
TORSDOF 5
ENDMDL
MODEL 6
REMARK VINA RESULT:     0.002      3.971      8.705
REMARK INTER + INTRA:          -2.472
REMARK INTER:                   0.000
REMARK INTRA:                  -2.472
REMARK UNBOUND:                -2.475
REMARK  Name = 68748835
REMARK  6 active torsions:
REMARK  status: ('A' for Active; 'I' for Inactive)
REMARK    1  A    between atoms: N_7  and  C_28
REMARK    2  A    between atoms: N_9  and  C_18
REMARK    3  A    between atoms: C_13  and  C_24
REMARK    4  A    between atoms: C_16  and  C_26
REMARK    5  A    between atoms: C_28  and  C_35
REMARK    6  A    between atoms: C_29  and  C_31
REMARK                            x       y       z     vdW  Elec       q    Type
REMARK                         _______ _______ _______ _____ _____    ______ ____
ROOT
ATOM      1  O   UNL     1      -3.364   3.244  -4.839  0.00  0.00    +0.000 OA
ATOM      2  N   UNL     1      -4.269   1.526  -3.624  0.00  0.00    +0.000 N 
ATOM      3  C   UNL     1      -3.235   2.298  -4.078  0.00  0.00    +0.000 C 
ATOM      4  H   UNL     1      -4.094   1.007  -2.773  0.00  0.00    +0.000 HD
ENDROOT
BRANCH   3  18
ATOM      5  O   UNL     1       1.161  -0.885   0.581  0.00  0.00    +0.000 OA
ATOM      6  N   UNL     1       2.904  -2.063  -0.388  0.00  0.00    +0.000 N 
ATOM      7  N   UNL     1       0.305   2.601  -2.829  0.00  0.00    +0.000 NA
ATOM      8  N   UNL     1       4.461  -3.019  -1.943  0.00  0.00    +0.000 NA
ATOM      9  C   UNL     1       1.636  -0.695  -1.841  0.00  0.00    +0.000 C 
ATOM     10  C   UNL     1       0.211  -1.049  -2.323  0.00  0.00    +0.000 C 
ATOM     11  C   UNL     1       1.831   0.837  -1.906  0.00  0.00    +0.000 C 
ATOM     12  C   UNL     1      -0.346   0.278  -2.712  0.00  0.00    +0.000 A 
ATOM     13  C   UNL     1       2.720  -1.454  -2.560  0.00  0.00    +0.000 A 
ATOM     14  C   UNL     1       0.551   1.315  -2.519  0.00  0.00    +0.000 A 
ATOM     15  C   UNL     1       1.832  -1.190  -0.391  0.00  0.00    +0.000 C 
ATOM     16  C   UNL     1       3.429  -2.227  -1.652  0.00  0.00    +0.000 A 
ATOM     17  C   UNL     1      -1.598   0.565  -3.213  0.00  0.00    +0.000 A 
ATOM     18  C   UNL     1      -1.906   1.897  -3.537  0.00  0.00    +0.000 A 
ATOM     19  C   UNL     1       3.086  -1.481  -3.893  0.00  0.00    +0.000 A 
ATOM     20  C   UNL     1      -0.926   2.863  -3.345  0.00  0.00    +0.000 A 
ATOM     21  C   UNL     1       4.165  -2.294  -4.245  0.00  0.00    +0.000 A 
ATOM     22  C   UNL     1       4.811  -3.030  -3.251  0.00  0.00    +0.000 A 
ATOM     23  H   UNL     1       3.260  -2.540   0.425  0.00  0.00    +0.000 HD
ENDBRANCH   3  18
BRANCH   2  29
ATOM     24  O   UNL     1      -6.152   3.369  -2.328  0.00  0.00    +0.000 OA
ATOM     25  N   UNL     1      -6.377   1.181  -1.685  0.00  0.00    +0.000 N 
ATOM     26  C   UNL     1      -6.482  -0.725  -3.344  0.00  0.00    +0.000 C 
ATOM     27  C   UNL     1      -7.067  -0.067  -2.050  0.00  0.00    +0.000 C 
ATOM     28  C   UNL     1      -6.353   0.356  -4.439  0.00  0.00    +0.000 C 
ATOM     29  C   UNL     1      -5.683   1.651  -3.980  0.00  0.00    +0.000 C 
ATOM     30  C   UNL     1      -6.247   2.184  -2.647  0.00  0.00    +0.000 C 
ATOM     31  C   UNL     1      -7.305  -1.052  -0.903  0.00  0.00    +0.000 C 
BRANCH  26  32
ATOM     32  C   UNL     1      -5.251  -1.617  -3.198  0.00  0.00    +0.000 A 
ATOM     33  C   UNL     1      -4.335  -1.727  -4.256  0.00  0.00    +0.000 A 
ATOM     34  C   UNL     1      -5.011  -2.403  -2.068  0.00  0.00    +0.000 A 
ATOM     35  C   UNL     1      -3.282  -2.651  -4.202  0.00  0.00    +0.000 A 
ATOM     36  C   UNL     1      -3.968  -3.325  -2.007  0.00  0.00    +0.000 A 
ATOM     37  C   UNL     1      -3.113  -3.468  -3.086  0.00  0.00    +0.000 A 
ENDBRANCH  26  32
BRANCH  25  38
ATOM     38  C   UNL     1      -5.712   1.411  -0.386  0.00  0.00    +0.000 C 
BRANCH  38  42
ATOM     39  F   UNL     1      -3.507   2.282  -0.686  0.00  0.00    +0.000 F 
ATOM     40  F   UNL     1      -3.801   0.128  -0.957  0.00  0.00    +0.000 F 
ATOM     41  F   UNL     1      -3.891   0.993   1.036  0.00  0.00    +0.000 F 
ATOM     42  C   UNL     1      -4.207   1.216  -0.266  0.00  0.00    +0.000 C 
ENDBRANCH  38  42
ENDBRANCH  25  38
ENDBRANCH   2  29
TORSDOF 5
ENDMDL
MODEL 7
REMARK VINA RESULT:     0.002      4.304      6.350
REMARK INTER + INTRA:          -2.472
REMARK INTER:                   0.000
REMARK INTRA:                  -2.472
REMARK UNBOUND:                -2.475
REMARK  Name = 68748835
REMARK  6 active torsions:
REMARK  status: ('A' for Active; 'I' for Inactive)
REMARK    1  A    between atoms: N_7  and  C_28
REMARK    2  A    between atoms: N_9  and  C_18
REMARK    3  A    between atoms: C_13  and  C_24
REMARK    4  A    between atoms: C_16  and  C_26
REMARK    5  A    between atoms: C_28  and  C_35
REMARK    6  A    between atoms: C_29  and  C_31
REMARK                            x       y       z     vdW  Elec       q    Type
REMARK                         _______ _______ _______ _____ _____    ______ ____
ROOT
ATOM      1  O   UNL     1      -7.952  -0.040   0.936  0.00  0.00    +0.000 OA
ATOM      2  N   UNL     1      -6.738  -1.246  -0.586  0.00  0.00    +0.000 N 
ATOM      3  C   UNL     1      -6.879  -0.411   0.488  0.00  0.00    +0.000 C 
ATOM      4  H   UNL     1      -5.854  -1.734  -0.655  0.00  0.00    +0.000 HD
ENDROOT
BRANCH   3  18
ATOM      5  O   UNL     1       0.117  -1.019   1.850  0.00  0.00    +0.000 OA
ATOM      6  N   UNL     1       1.304   0.963   1.703  0.00  0.00    +0.000 N 
ATOM      7  N   UNL     1      -4.383   0.612   3.117  0.00  0.00    +0.000 NA
ATOM      8  N   UNL     1       1.929   3.267   1.460  0.00  0.00    +0.000 NA
ATOM      9  C   UNL     1      -1.052   1.151   1.626  0.00  0.00    +0.000 C 
ATOM     10  C   UNL     1      -1.901   0.761   0.395  0.00  0.00    +0.000 C 
ATOM     11  C   UNL     1      -1.925   1.062   2.897  0.00  0.00    +0.000 C 
ATOM     12  C   UNL     1      -3.249   0.525   0.985  0.00  0.00    +0.000 A 
ATOM     13  C   UNL     1      -0.360   2.482   1.482  0.00  0.00    +0.000 A 
ATOM     14  C   UNL     1      -3.279   0.722   2.356  0.00  0.00    +0.000 A 
ATOM     15  C   UNL     1       0.156   0.195   1.747  0.00  0.00    +0.000 C 
ATOM     16  C   UNL     1       1.014   2.302   1.545  0.00  0.00    +0.000 A 
ATOM     17  C   UNL     1      -4.408   0.145   0.342  0.00  0.00    +0.000 A 
ATOM     18  C   UNL     1      -5.583   0.001   1.098  0.00  0.00    +0.000 A 
ATOM     19  C   UNL     1      -0.863   3.758   1.319  0.00  0.00    +0.000 A 
ATOM     20  C   UNL     1      -5.523   0.260   2.462  0.00  0.00    +0.000 A 
ATOM     21  C   UNL     1       0.059   4.803   1.229  0.00  0.00    +0.000 A 
ATOM     22  C   UNL     1       1.422   4.512   1.307  0.00  0.00    +0.000 A 
ATOM     23  H   UNL     1       2.243   0.604   1.761  0.00  0.00    +0.000 HD
ENDBRANCH   3  18
BRANCH   2  29
ATOM     24  O   UNL     1      -8.239  -3.682   0.078  0.00  0.00    +0.000 OA
ATOM     25  N   UNL     1      -6.661  -3.961  -1.560  0.00  0.00    +0.000 N 
ATOM     26  C   UNL     1      -6.444  -2.388  -3.529  0.00  0.00    +0.000 C 
ATOM     27  C   UNL     1      -6.478  -3.867  -3.017  0.00  0.00    +0.000 C 
ATOM     28  C   UNL     1      -7.637  -1.621  -2.916  0.00  0.00    +0.000 C 
ATOM     29  C   UNL     1      -7.810  -1.810  -1.409  0.00  0.00    +0.000 C 
ATOM     30  C   UNL     1      -7.733  -3.287  -0.972  0.00  0.00    +0.000 C 
ATOM     31  C   UNL     1      -5.378  -4.754  -3.605  0.00  0.00    +0.000 C 
BRANCH  26  32
ATOM     32  C   UNL     1      -5.116  -1.637  -3.456  0.00  0.00    +0.000 A 
ATOM     33  C   UNL     1      -5.105  -0.244  -3.292  0.00  0.00    +0.000 A 
ATOM     34  C   UNL     1      -3.878  -2.265  -3.617  0.00  0.00    +0.000 A 
ATOM     35  C   UNL     1      -3.907   0.481  -3.373  0.00  0.00    +0.000 A 
ATOM     36  C   UNL     1      -2.683  -1.552  -3.701  0.00  0.00    +0.000 A 
ATOM     37  C   UNL     1      -2.699  -0.173  -3.602  0.00  0.00    +0.000 A 
ENDBRANCH  26  32
BRANCH  25  38
ATOM     38  C   UNL     1      -5.721  -4.644  -0.649  0.00  0.00    +0.000 C 
BRANCH  38  42
ATOM     39  F   UNL     1      -5.175  -3.263   1.224  0.00  0.00    +0.000 F 
ATOM     40  F   UNL     1      -4.156  -2.861  -0.673  0.00  0.00    +0.000 F 
ATOM     41  F   UNL     1      -3.656  -4.642   0.472  0.00  0.00    +0.000 F 
ATOM     42  C   UNL     1      -4.683  -3.829   0.110  0.00  0.00    +0.000 C 
ENDBRANCH  38  42
ENDBRANCH  25  38
ENDBRANCH   2  29
TORSDOF 5
ENDMDL
MODEL 8
REMARK VINA RESULT:     0.002      3.133      8.614
REMARK INTER + INTRA:          -2.472
REMARK INTER:                   0.000
REMARK INTRA:                  -2.472
REMARK UNBOUND:                -2.475
REMARK  Name = 68748835
REMARK  6 active torsions:
REMARK  status: ('A' for Active; 'I' for Inactive)
REMARK    1  A    between atoms: N_7  and  C_28
REMARK    2  A    between atoms: N_9  and  C_18
REMARK    3  A    between atoms: C_13  and  C_24
REMARK    4  A    between atoms: C_16  and  C_26
REMARK    5  A    between atoms: C_28  and  C_35
REMARK    6  A    between atoms: C_29  and  C_31
REMARK                            x       y       z     vdW  Elec       q    Type
REMARK                         _______ _______ _______ _____ _____    ______ ____
ROOT
ATOM      1  O   UNL     1       0.162   5.051   0.134  0.00  0.00    +0.000 OA
ATOM      2  N   UNL     1      -1.825   4.142  -0.554  0.00  0.00    +0.000 N 
ATOM      3  C   UNL     1      -0.491   4.095  -0.251  0.00  0.00    +0.000 C 
ATOM      4  H   UNL     1      -2.314   3.257  -0.538  0.00  0.00    +0.000 HD
ENDROOT
BRANCH   3  18
ATOM      5  O   UNL     1      -0.650  -3.038  -0.761  0.00  0.00    +0.000 OA
ATOM      6  N   UNL     1       0.696  -3.916  -2.428  0.00  0.00    +0.000 N 
ATOM      7  N   UNL     1       1.760   1.138   0.362  0.00  0.00    +0.000 NA
ATOM      8  N   UNL     1       2.273  -4.194  -4.214  0.00  0.00    +0.000 NA
ATOM      9  C   UNL     1       0.976  -1.615  -1.965  0.00  0.00    +0.000 C 
ATOM     10  C   UNL     1      -0.034  -0.527  -2.395  0.00  0.00    +0.000 C 
ATOM     11  C   UNL     1       1.777  -1.113  -0.743  0.00  0.00    +0.000 C 
ATOM     12  C   UNL     1       0.261   0.589  -1.451  0.00  0.00    +0.000 A 
ATOM     13  C   UNL     1       1.860  -2.091  -3.089  0.00  0.00    +0.000 A 
ATOM     14  C   UNL     1       1.279   0.288  -0.562  0.00  0.00    +0.000 A 
ATOM     15  C   UNL     1       0.220  -2.912  -1.605  0.00  0.00    +0.000 C 
ATOM     16  C   UNL     1       1.653  -3.447  -3.301  0.00  0.00    +0.000 A 
ATOM     17  C   UNL     1      -0.347   1.824  -1.372  0.00  0.00    +0.000 A 
ATOM     18  C   UNL     1       0.111   2.741  -0.411  0.00  0.00    +0.000 A 
ATOM     19  C   UNL     1       2.783  -1.423  -3.871  0.00  0.00    +0.000 A 
ATOM     20  C   UNL     1       1.165   2.361   0.410  0.00  0.00    +0.000 A 
ATOM     21  C   UNL     1       3.461  -2.166  -4.838  0.00  0.00    +0.000 A 
ATOM     22  C   UNL     1       3.179  -3.527  -4.967  0.00  0.00    +0.000 A 
ATOM     23  H   UNL     1       0.381  -4.873  -2.414  0.00  0.00    +0.000 HD
ENDBRANCH   3  18
BRANCH   2  29
ATOM     24  O   UNL     1      -3.171   5.137   1.859  0.00  0.00    +0.000 OA
ATOM     25  N   UNL     1      -4.542   4.013   0.407  0.00  0.00    +0.000 N 
ATOM     26  C   UNL     1      -4.583   4.489  -2.076  0.00  0.00    +0.000 C 
ATOM     27  C   UNL     1      -5.401   4.223  -0.769  0.00  0.00    +0.000 C 
ATOM     28  C   UNL     1      -3.511   5.562  -1.785  0.00  0.00    +0.000 C 
ATOM     29  C   UNL     1      -2.694   5.320  -0.516  0.00  0.00    +0.000 C 
ATOM     30  C   UNL     1      -3.566   4.967   0.706  0.00  0.00    +0.000 C 
ATOM     31  C   UNL     1      -6.543   3.219  -0.942  0.00  0.00    +0.000 C 
BRANCH  26  32
ATOM     32  C   UNL     1      -4.061   3.280  -2.851  0.00  0.00    +0.000 A 
ATOM     33  C   UNL     1      -2.882   3.385  -3.604  0.00  0.00    +0.000 A 
ATOM     34  C   UNL     1      -4.745   2.063  -2.910  0.00  0.00    +0.000 A 
ATOM     35  C   UNL     1      -2.466   2.338  -4.439  0.00  0.00    +0.000 A 
ATOM     36  C   UNL     1      -4.340   1.019  -3.740  0.00  0.00    +0.000 A 
ATOM     37  C   UNL     1      -3.211   1.163  -4.525  0.00  0.00    +0.000 A 
ENDBRANCH  26  32
BRANCH  25  38
ATOM     38  C   UNL     1      -4.569   2.799   1.248  0.00  0.00    +0.000 C 
BRANCH  38  42
ATOM     39  F   UNL     1      -2.365   1.949   1.610  0.00  0.00    +0.000 F 
ATOM     40  F   UNL     1      -3.329   1.505  -0.306  0.00  0.00    +0.000 F 
ATOM     41  F   UNL     1      -4.023   0.530   1.510  0.00  0.00    +0.000 F 
ATOM     42  C   UNL     1      -3.542   1.699   1.014  0.00  0.00    +0.000 C 
ENDBRANCH  38  42
ENDBRANCH  25  38
ENDBRANCH   2  29
TORSDOF 5
ENDMDL
MODEL 9
REMARK VINA RESULT:     0.002      2.267      3.396
REMARK INTER + INTRA:          -2.472
REMARK INTER:                   0.000
REMARK INTRA:                  -2.472
REMARK UNBOUND:                -2.475
REMARK  Name = 68748835
REMARK  6 active torsions:
REMARK  status: ('A' for Active; 'I' for Inactive)
REMARK    1  A    between atoms: N_7  and  C_28
REMARK    2  A    between atoms: N_9  and  C_18
REMARK    3  A    between atoms: C_13  and  C_24
REMARK    4  A    between atoms: C_16  and  C_26
REMARK    5  A    between atoms: C_28  and  C_35
REMARK    6  A    between atoms: C_29  and  C_31
REMARK                            x       y       z     vdW  Elec       q    Type
REMARK                         _______ _______ _______ _____ _____    ______ ____
ROOT
ATOM      1  O   UNL     1       2.082  -4.140  -0.634  0.00  0.00    +0.000 OA
ATOM      2  N   UNL     1       2.550  -1.946  -0.168  0.00  0.00    +0.000 N 
ATOM      3  C   UNL     1       1.758  -3.062  -0.163  0.00  0.00    +0.000 C 
ATOM      4  H   UNL     1       2.323  -1.238   0.518  0.00  0.00    +0.000 HD
ENDROOT
BRANCH   3  18
ATOM      5  O   UNL     1      -2.841   0.255   4.199  0.00  0.00    +0.000 OA
ATOM      6  N   UNL     1      -4.960   0.558   3.316  0.00  0.00    +0.000 N 
ATOM      7  N   UNL     1      -1.351  -3.825   1.822  0.00  0.00    +0.000 NA
ATOM      8  N   UNL     1      -6.902   0.513   1.908  0.00  0.00    +0.000 NA
ATOM      9  C   UNL     1      -3.508  -0.843   2.084  0.00  0.00    +0.000 C 
ATOM     10  C   UNL     1      -2.326  -0.318   1.238  0.00  0.00    +0.000 C 
ATOM     11  C   UNL     1      -3.229  -2.305   2.498  0.00  0.00    +0.000 C 
ATOM     12  C   UNL     1      -1.436  -1.510   1.137  0.00  0.00    +0.000 A 
ATOM     13  C   UNL     1      -4.847  -0.669   1.417  0.00  0.00    +0.000 A 
ATOM     14  C   UNL     1      -1.942  -2.617   1.797  0.00  0.00    +0.000 A 
ATOM     15  C   UNL     1      -3.679   0.038   3.341  0.00  0.00    +0.000 C 
ATOM     16  C   UNL     1      -5.651   0.153   2.194  0.00  0.00    +0.000 A 
ATOM     17  C   UNL     1      -0.223  -1.618   0.491  0.00  0.00    +0.000 A 
ATOM     18  C   UNL     1       0.440  -2.856   0.503  0.00  0.00    +0.000 A 
ATOM     19  C   UNL     1      -5.354  -1.180   0.238  0.00  0.00    +0.000 A 
ATOM     20  C   UNL     1      -0.166  -3.920   1.160  0.00  0.00    +0.000 A 
ATOM     21  C   UNL     1      -6.663  -0.834  -0.102  0.00  0.00    +0.000 A 
ATOM     22  C   UNL     1      -7.386  -0.001   0.754  0.00  0.00    +0.000 A 
ATOM     23  H   UNL     1      -5.349   1.170   4.015  0.00  0.00    +0.000 HD
ENDBRANCH   3  18
BRANCH   2  29
ATOM     24  O   UNL     1       5.043  -2.706   1.184  0.00  0.00    +0.000 OA
ATOM     25  N   UNL     1       4.656  -0.449   1.114  0.00  0.00    +0.000 N 
ATOM     26  C   UNL     1       3.981   0.755  -1.005  0.00  0.00    +0.000 C 
ATOM     27  C   UNL     1       4.883   0.738   0.274  0.00  0.00    +0.000 C 
ATOM     28  C   UNL     1       4.066  -0.625  -1.694  0.00  0.00    +0.000 C 
ATOM     29  C   UNL     1       3.884  -1.818  -0.757  0.00  0.00    +0.000 C 
ATOM     30  C   UNL     1       4.732  -1.714   0.527  0.00  0.00    +0.000 C 
ATOM     31  C   UNL     1       4.935   2.075   1.017  0.00  0.00    +0.000 C 
BRANCH  26  32
ATOM     32  C   UNL     1       2.560   1.298  -0.870  0.00  0.00    +0.000 A 
ATOM     33  C   UNL     1       1.540   0.813  -1.703  0.00  0.00    +0.000 A 
ATOM     34  C   UNL     1       2.220   2.327   0.013  0.00  0.00    +0.000 A 
ATOM     35  C   UNL     1       0.267   1.401  -1.700  0.00  0.00    +0.000 A 
ATOM     36  C   UNL     1       0.958   2.918   0.021  0.00  0.00    +0.000 A 
ATOM     37  C   UNL     1      -0.016   2.471  -0.853  0.00  0.00    +0.000 A 
ENDBRANCH  26  32
BRANCH  25  38
ATOM     38  C   UNL     1       4.247  -0.395   2.532  0.00  0.00    +0.000 C 
BRANCH  38  42
ATOM     39  F   UNL     1       2.398  -1.849   2.954  0.00  0.00    +0.000 F 
ATOM     40  F   UNL     1       1.982   0.091   2.025  0.00  0.00    +0.000 F 
ATOM     41  F   UNL     1       2.559  -0.007   4.119  0.00  0.00    +0.000 F 
ATOM     42  C   UNL     1       2.779  -0.562   2.899  0.00  0.00    +0.000 C 
ENDBRANCH  38  42
ENDBRANCH  25  38
ENDBRANCH   2  29
TORSDOF 5
ENDMDL
MODEL 10
REMARK VINA RESULT:     0.002      3.246      5.331
REMARK INTER + INTRA:          -2.472
REMARK INTER:                   0.000
REMARK INTRA:                  -2.472
REMARK UNBOUND:                -2.475
REMARK  Name = 68748835
REMARK  6 active torsions:
REMARK  status: ('A' for Active; 'I' for Inactive)
REMARK    1  A    between atoms: N_7  and  C_28
REMARK    2  A    between atoms: N_9  and  C_18
REMARK    3  A    between atoms: C_13  and  C_24
REMARK    4  A    between atoms: C_16  and  C_26
REMARK    5  A    between atoms: C_28  and  C_35
REMARK    6  A    between atoms: C_29  and  C_31
REMARK                            x       y       z     vdW  Elec       q    Type
REMARK                         _______ _______ _______ _____ _____    ______ ____
ROOT
ATOM      1  O   UNL     1       1.405  -3.511   0.132  0.00  0.00    +0.000 OA
ATOM      2  N   UNL     1      -0.828  -3.790  -0.298  0.00  0.00    +0.000 N 
ATOM      3  C   UNL     1       0.302  -3.044  -0.099  0.00  0.00    +0.000 C 
ATOM      4  H   UNL     1      -1.581  -3.330  -0.794  0.00  0.00    +0.000 HD
ENDROOT
BRANCH   3  18
ATOM      5  O   UNL     1      -3.235   2.817  -2.177  0.00  0.00    +0.000 OA
ATOM      6  N   UNL     1      -3.423   4.456  -0.552  0.00  0.00    +0.000 N 
ATOM      7  N   UNL     1       0.980   0.585  -0.848  0.00  0.00    +0.000 NA
ATOM      8  N   UNL     1      -3.228   5.740   1.466  0.00  0.00    +0.000 NA
ATOM      9  C   UNL     1      -1.964   2.662  -0.058  0.00  0.00    +0.000 C 
ATOM     10  C   UNL     1      -2.450   1.247   0.329  0.00  0.00    +0.000 C 
ATOM     11  C   UNL     1      -0.544   2.567  -0.660  0.00  0.00    +0.000 C 
ATOM     12  C   UNL     1      -1.273   0.393   0.000  0.00  0.00    +0.000 A 
ATOM     13  C   UNL     1      -2.058   3.659   1.068  0.00  0.00    +0.000 A 
ATOM     14  C   UNL     1      -0.209   1.116  -0.511  0.00  0.00    +0.000 A 
ATOM     15  C   UNL     1      -2.935   3.280  -1.089  0.00  0.00    +0.000 C 
ATOM     16  C   UNL     1      -2.919   4.686   0.710  0.00  0.00    +0.000 A 
ATOM     17  C   UNL     1      -1.144  -0.973   0.141  0.00  0.00    +0.000 A 
ATOM     18  C   UNL     1       0.075  -1.575  -0.212  0.00  0.00    +0.000 A 
ATOM     19  C   UNL     1      -1.447   3.696   2.307  0.00  0.00    +0.000 A 
ATOM     20  C   UNL     1       1.099  -0.761  -0.680  0.00  0.00    +0.000 A 
ATOM     21  C   UNL     1      -1.737   4.784   3.132  0.00  0.00    +0.000 A 
ATOM     22  C   UNL     1      -2.617   5.766   2.673  0.00  0.00    +0.000 A 
ATOM     23  H   UNL     1      -4.078   5.072  -1.006  0.00  0.00    +0.000 HD
ENDBRANCH   3  18
BRANCH   2  29
ATOM     24  O   UNL     1      -0.227  -5.600  -2.531  0.00  0.00    +0.000 OA
ATOM     25  N   UNL     1      -2.464  -5.283  -2.146  0.00  0.00    +0.000 N 
ATOM     26  C   UNL     1      -3.489  -5.449   0.160  0.00  0.00    +0.000 C 
ATOM     27  C   UNL     1      -3.589  -5.814  -1.359  0.00  0.00    +0.000 C 
ATOM     28  C   UNL     1      -2.063  -5.774   0.658  0.00  0.00    +0.000 C 
ATOM     29  C   UNL     1      -0.940  -5.249  -0.236  0.00  0.00    +0.000 C 
ATOM     30  C   UNL     1      -1.160  -5.562  -1.730  0.00  0.00    +0.000 C 
ATOM     31  C   UNL     1      -4.979  -5.598  -1.962  0.00  0.00    +0.000 C 
BRANCH  26  32
ATOM     32  C   UNL     1      -4.009  -4.084   0.603  0.00  0.00    +0.000 A 
ATOM     33  C   UNL     1      -3.440  -3.441   1.713  0.00  0.00    +0.000 A 
ATOM     34  C   UNL     1      -5.094  -3.449  -0.008  0.00  0.00    +0.000 A 
ATOM     35  C   UNL     1      -3.998  -2.262   2.226  0.00  0.00    +0.000 A 
ATOM     36  C   UNL     1      -5.656  -2.278   0.497  0.00  0.00    +0.000 A 
ATOM     37  C   UNL     1      -5.122  -1.694   1.631  0.00  0.00    +0.000 A 
ENDBRANCH  26  32
BRANCH  25  38
ATOM     38  C   UNL     1      -2.616  -4.379  -3.304  0.00  0.00    +0.000 C 
BRANCH  38  42
ATOM     39  F   UNL     1      -1.158  -2.494  -3.125  0.00  0.00    +0.000 F 
ATOM     40  F   UNL     1      -3.012  -2.466  -1.958  0.00  0.00    +0.000 F 
ATOM     41  F   UNL     1      -3.086  -2.227  -4.119  0.00  0.00    +0.000 F 
ATOM     42  C   UNL     1      -2.445  -2.878  -3.114  0.00  0.00    +0.000 C 
ENDBRANCH  38  42
ENDBRANCH  25  38
ENDBRANCH   2  29
TORSDOF 5
ENDMDL
MODEL 11
REMARK VINA RESULT:     0.002      4.470      7.464
REMARK INTER + INTRA:          -2.472
REMARK INTER:                   0.000
REMARK INTRA:                  -2.472
REMARK UNBOUND:                -2.475
REMARK  Name = 68748835
REMARK  6 active torsions:
REMARK  status: ('A' for Active; 'I' for Inactive)
REMARK    1  A    between atoms: N_7  and  C_28
REMARK    2  A    between atoms: N_9  and  C_18
REMARK    3  A    between atoms: C_13  and  C_24
REMARK    4  A    between atoms: C_16  and  C_26
REMARK    5  A    between atoms: C_28  and  C_35
REMARK    6  A    between atoms: C_29  and  C_31
REMARK                            x       y       z     vdW  Elec       q    Type
REMARK                         _______ _______ _______ _____ _____    ______ ____
ROOT
ATOM      1  O   UNL     1      -4.355   1.841  -4.940  0.00  0.00    +0.000 OA
ATOM      2  N   UNL     1      -4.678   0.293  -3.283  0.00  0.00    +0.000 N 
ATOM      3  C   UNL     1      -4.102   1.408  -3.828  0.00  0.00    +0.000 C 
ATOM      4  H   UNL     1      -4.645   0.225  -2.274  0.00  0.00    +0.000 HD
ENDROOT
BRANCH   3  18
ATOM      5  O   UNL     1      -1.168   2.959   2.509  0.00  0.00    +0.000 OA
ATOM      6  N   UNL     1       1.148   2.965   2.524  0.00  0.00    +0.000 N 
ATOM      7  N   UNL     1      -2.131   4.170  -2.194  0.00  0.00    +0.000 NA
ATOM      8  N   UNL     1       3.461   2.874   1.892  0.00  0.00    +0.000 NA
ATOM      9  C   UNL     1       0.120   2.822   0.400  0.00  0.00    +0.000 C 
ATOM     10  C   UNL     1      -0.564   1.544  -0.136  0.00  0.00    +0.000 C 
ATOM     11  C   UNL     1      -0.483   4.057  -0.306  0.00  0.00    +0.000 C 
ATOM     12  C   UNL     1      -1.490   2.076  -1.176  0.00  0.00    +0.000 A 
ATOM     13  C   UNL     1       1.623   2.778   0.319  0.00  0.00    +0.000 A 
ATOM     14  C   UNL     1      -1.426   3.453  -1.301  0.00  0.00    +0.000 A 
ATOM     15  C   UNL     1      -0.098   2.927   1.926  0.00  0.00    +0.000 C 
ATOM     16  C   UNL     1       2.161   2.874   1.594  0.00  0.00    +0.000 A 
ATOM     17  C   UNL     1      -2.362   1.374  -1.982  0.00  0.00    +0.000 A 
ATOM     18  C   UNL     1      -3.131   2.082  -2.921  0.00  0.00    +0.000 A 
ATOM     19  C   UNL     1       2.477   2.671  -0.763  0.00  0.00    +0.000 A 
ATOM     20  C   UNL     1      -2.968   3.460  -2.998  0.00  0.00    +0.000 A 
ATOM     21  C   UNL     1       3.848   2.672  -0.500  0.00  0.00    +0.000 A 
ATOM     22  C   UNL     1       4.284   2.777   0.822  0.00  0.00    +0.000 A 
ATOM     23  H   UNL     1       1.312   3.033   3.516  0.00  0.00    +0.000 HD
ENDBRANCH   3  18
BRANCH   2  29
ATOM     24  O   UNL     1      -7.576   0.766  -3.335  0.00  0.00    +0.000 OA
ATOM     25  N   UNL     1      -6.906  -0.834  -1.838  0.00  0.00    +0.000 N 
ATOM     26  C   UNL     1      -5.315  -2.700  -2.455  0.00  0.00    +0.000 C 
ATOM     27  C   UNL     1      -6.636  -2.276  -1.731  0.00  0.00    +0.000 C 
ATOM     28  C   UNL     1      -5.302  -2.082  -3.871  0.00  0.00    +0.000 C 
ATOM     29  C   UNL     1      -5.652  -0.595  -3.921  0.00  0.00    +0.000 C 
ATOM     30  C   UNL     1      -6.911  -0.242  -3.103  0.00  0.00    +0.000 C 
ATOM     31  C   UNL     1      -6.801  -2.879  -0.333  0.00  0.00    +0.000 C 
BRANCH  26  32
ATOM     32  C   UNL     1      -4.000  -2.541  -1.693  0.00  0.00    +0.000 A 
ATOM     33  C   UNL     1      -2.809  -2.295  -2.392  0.00  0.00    +0.000 A 
ATOM     34  C   UNL     1      -3.901  -2.699  -0.308  0.00  0.00    +0.000 A 
ATOM     35  C   UNL     1      -1.573  -2.296  -1.730  0.00  0.00    +0.000 A 
ATOM     36  C   UNL     1      -2.677  -2.703   0.358  0.00  0.00    +0.000 A 
ATOM     37  C   UNL     1      -1.506  -2.524  -0.357  0.00  0.00    +0.000 A 
ENDBRANCH  26  32
BRANCH  25  38
ATOM     38  C   UNL     1      -7.076   0.066  -0.679  0.00  0.00    +0.000 C 
BRANCH  38  42
ATOM     39  F   UNL     1      -5.738   2.032  -0.909  0.00  0.00    +0.000 F 
ATOM     40  F   UNL     1      -4.749   0.196  -0.239  0.00  0.00    +0.000 F 
ATOM     41  F   UNL     1      -6.101   1.251   1.099  0.00  0.00    +0.000 F 
ATOM     42  C   UNL     1      -5.900   0.904  -0.199  0.00  0.00    +0.000 C 
ENDBRANCH  38  42
ENDBRANCH  25  38
ENDBRANCH   2  29
TORSDOF 5
ENDMDL
MODEL 12
REMARK VINA RESULT:     0.003      3.150      4.997
REMARK INTER + INTRA:          -2.471
REMARK INTER:                   0.000
REMARK INTRA:                  -2.471
REMARK UNBOUND:                -2.475
REMARK  Name = 68748835
REMARK  6 active torsions:
REMARK  status: ('A' for Active; 'I' for Inactive)
REMARK    1  A    between atoms: N_7  and  C_28
REMARK    2  A    between atoms: N_9  and  C_18
REMARK    3  A    between atoms: C_13  and  C_24
REMARK    4  A    between atoms: C_16  and  C_26
REMARK    5  A    between atoms: C_28  and  C_35
REMARK    6  A    between atoms: C_29  and  C_31
REMARK                            x       y       z     vdW  Elec       q    Type
REMARK                         _______ _______ _______ _____ _____    ______ ____
ROOT
ATOM      1  O   UNL     1      -0.190   0.454  -4.561  0.00  0.00    +0.000 OA
ATOM      2  N   UNL     1       0.722   1.350  -2.661  0.00  0.00    +0.000 N 
ATOM      3  C   UNL     1      -0.153   0.552  -3.346  0.00  0.00    +0.000 C 
ATOM      4  H   UNL     1       0.880   1.106  -1.692  0.00  0.00    +0.000 HD
ENDROOT
BRANCH   3  18
ATOM      5  O   UNL     1      -2.193  -2.452   2.818  0.00  0.00    +0.000 OA
ATOM      6  N   UNL     1      -4.423  -2.135   3.354  0.00  0.00    +0.000 N 
ATOM      7  N   UNL     1      -2.327  -2.272  -2.128  0.00  0.00    +0.000 NA
ATOM      8  N   UNL     1      -6.744  -1.527   3.310  0.00  0.00    +0.000 NA
ATOM      9  C   UNL     1      -3.773  -1.489   1.174  0.00  0.00    +0.000 C 
ATOM     10  C   UNL     1      -2.948  -0.218   0.869  0.00  0.00    +0.000 C 
ATOM     11  C   UNL     1      -3.564  -2.517   0.040  0.00  0.00    +0.000 C 
ATOM     12  C   UNL     1      -2.344  -0.527  -0.459  0.00  0.00    +0.000 A 
ATOM     13  C   UNL     1      -5.227  -1.209   1.451  0.00  0.00    +0.000 A 
ATOM     14  C   UNL     1      -2.706  -1.775  -0.937  0.00  0.00    +0.000 A 
ATOM     15  C   UNL     1      -3.319  -2.091   2.523  0.00  0.00    +0.000 C 
ATOM     16  C   UNL     1      -5.543  -1.619   2.738  0.00  0.00    +0.000 A 
ATOM     17  C   UNL     1      -1.503   0.259  -1.217  0.00  0.00    +0.000 A 
ATOM     18  C   UNL     1      -1.068  -0.226  -2.462  0.00  0.00    +0.000 A 
ATOM     19  C   UNL     1      -6.216  -0.654   0.662  0.00  0.00    +0.000 A 
ATOM     20  C   UNL     1      -1.517  -1.474  -2.875  0.00  0.00    +0.000 A 
ATOM     21  C   UNL     1      -7.492  -0.542   1.217  0.00  0.00    +0.000 A 
ATOM     22  C   UNL     1      -7.703  -0.988   2.523  0.00  0.00    +0.000 A 
ATOM     23  H   UNL     1      -4.422  -2.482   4.299  0.00  0.00    +0.000 HD
ENDBRANCH   3  18
BRANCH   2  29
ATOM     24  O   UNL     1       3.411   0.512  -3.496  0.00  0.00    +0.000 OA
ATOM     25  N   UNL     1       3.349   1.648  -1.506  0.00  0.00    +0.000 N 
ATOM     26  C   UNL     1       2.085   3.818  -1.212  0.00  0.00    +0.000 C 
ATOM     27  C   UNL     1       3.399   3.009  -0.950  0.00  0.00    +0.000 C 
ATOM     28  C   UNL     1       1.701   3.678  -2.702  0.00  0.00    +0.000 C 
ATOM     29  C   UNL     1       1.729   2.246  -3.235  0.00  0.00    +0.000 C 
ATOM     30  C   UNL     1       3.013   1.482  -2.852  0.00  0.00    +0.000 C 
ATOM     31  C   UNL     1       3.923   3.120   0.484  0.00  0.00    +0.000 C 
BRANCH  26  32
ATOM     32  C   UNL     1       0.919   3.620  -0.246  0.00  0.00    +0.000 A 
ATOM     33  C   UNL     1      -0.401   3.773  -0.698  0.00  0.00    +0.000 A 
ATOM     34  C   UNL     1       1.096   3.353   1.114  0.00  0.00    +0.000 A 
ATOM     35  C   UNL     1      -1.477   3.743   0.201  0.00  0.00    +0.000 A 
ATOM     36  C   UNL     1       0.032   3.324   2.014  0.00  0.00    +0.000 A 
ATOM     37  C   UNL     1      -1.257   3.543   1.562  0.00  0.00    +0.000 A 
ENDBRANCH  26  32
BRANCH  25  38
ATOM     38  C   UNL     1       3.533   0.419  -0.707  0.00  0.00    +0.000 C 
BRANCH  38  42
ATOM     39  F   UNL     1       1.805  -1.170  -1.158  0.00  0.00    +0.000 F 
ATOM     40  F   UNL     1       1.340   0.489   0.194  0.00  0.00    +0.000 F 
ATOM     41  F   UNL     1       2.662  -1.108   0.851  0.00  0.00    +0.000 F 
ATOM     42  C   UNL     1       2.313  -0.352  -0.222  0.00  0.00    +0.000 C 
ENDBRANCH  38  42
ENDBRANCH  25  38
ENDBRANCH   2  29
TORSDOF 5
ENDMDL
MODEL 13
REMARK VINA RESULT:     0.003      1.896      2.331
REMARK INTER + INTRA:          -2.471
REMARK INTER:                   0.000
REMARK INTRA:                  -2.471
REMARK UNBOUND:                -2.475
REMARK  Name = 68748835
REMARK  6 active torsions:
REMARK  status: ('A' for Active; 'I' for Inactive)
REMARK    1  A    between atoms: N_7  and  C_28
REMARK    2  A    between atoms: N_9  and  C_18
REMARK    3  A    between atoms: C_13  and  C_24
REMARK    4  A    between atoms: C_16  and  C_26
REMARK    5  A    between atoms: C_28  and  C_35
REMARK    6  A    between atoms: C_29  and  C_31
REMARK                            x       y       z     vdW  Elec       q    Type
REMARK                         _______ _______ _______ _____ _____    ______ ____
ROOT
ATOM      1  O   UNL     1       0.460  -4.817   2.719  0.00  0.00    +0.000 OA
ATOM      2  N   UNL     1       1.644  -3.564   1.211  0.00  0.00    +0.000 N 
ATOM      3  C   UNL     1       0.692  -3.749   2.176  0.00  0.00    +0.000 C 
ATOM      4  H   UNL     1       1.965  -2.613   1.082  0.00  0.00    +0.000 HD
ENDROOT
BRANCH   3  18
ATOM      5  O   UNL     1      -0.221   3.333   2.601  0.00  0.00    +0.000 OA
ATOM      6  N   UNL     1      -2.342   4.068   2.031  0.00  0.00    +0.000 N 
ATOM      7  N   UNL     1      -1.170  -1.231   4.269  0.00  0.00    +0.000 NA
ATOM      8  N   UNL     1      -4.655   4.180   1.403  0.00  0.00    +0.000 NA
ATOM      9  C   UNL     1      -2.077   1.730   2.264  0.00  0.00    +0.000 C 
ATOM     10  C   UNL     1      -1.351   0.844   1.227  0.00  0.00    +0.000 C 
ATOM     11  C   UNL     1      -2.027   1.042   3.647  0.00  0.00    +0.000 C 
ATOM     12  C   UNL     1      -0.964  -0.353   2.028  0.00  0.00    +0.000 A 
ATOM     13  C   UNL     1      -3.473   2.115   1.852  0.00  0.00    +0.000 A 
ATOM     14  C   UNL     1      -1.363  -0.267   3.351  0.00  0.00    +0.000 A 
ATOM     15  C   UNL     1      -1.391   3.113   2.337  0.00  0.00    +0.000 C 
ATOM     16  C   UNL     1      -3.562   3.496   1.742  0.00  0.00    +0.000 A 
ATOM     17  C   UNL     1      -0.281  -1.476   1.610  0.00  0.00    +0.000 A 
ATOM     18  C   UNL     1      -0.042  -2.504   2.538  0.00  0.00    +0.000 A 
ATOM     19  C   UNL     1      -4.594   1.349   1.596  0.00  0.00    +0.000 A 
ATOM     20  C   UNL     1      -0.516  -2.343   3.834  0.00  0.00    +0.000 A 
ATOM     21  C   UNL     1      -5.765   2.022   1.242  0.00  0.00    +0.000 A 
ATOM     22  C   UNL     1      -5.746   3.416   1.163  0.00  0.00    +0.000 A 
ATOM     23  H   UNL     1      -2.176   5.061   2.001  0.00  0.00    +0.000 HD
ENDBRANCH   3  18
BRANCH   2  29
ATOM     24  O   UNL     1       4.182  -4.453   2.392  0.00  0.00    +0.000 OA
ATOM     25  N   UNL     1       4.415  -3.047   0.597  0.00  0.00    +0.000 N 
ATOM     26  C   UNL     1       3.154  -3.380  -1.570  0.00  0.00    +0.000 C 
ATOM     27  C   UNL     1       4.517  -3.054  -0.871  0.00  0.00    +0.000 C 
ATOM     28  C   UNL     1       2.535  -4.626  -0.899  0.00  0.00    +0.000 C 
ATOM     29  C   UNL     1       2.517  -4.586   0.629  0.00  0.00    +0.000 C 
ATOM     30  C   UNL     1       3.868  -4.161   1.239  0.00  0.00    +0.000 C 
ATOM     31  C   UNL     1       5.266  -1.870  -1.488  0.00  0.00    +0.000 C 
BRANCH  26  32
ATOM     32  C   UNL     1       2.169  -2.233  -1.785  0.00  0.00    +0.000 A 
ATOM     33  C   UNL     1       0.789  -2.487  -1.803  0.00  0.00    +0.000 A 
ATOM     34  C   UNL     1       2.575  -0.920  -2.039  0.00  0.00    +0.000 A 
ATOM     35  C   UNL     1      -0.124  -1.479  -2.146  0.00  0.00    +0.000 A 
ATOM     36  C   UNL     1       1.675   0.087  -2.384  0.00  0.00    +0.000 A 
ATOM     37  C   UNL     1       0.323  -0.197  -2.460  0.00  0.00    +0.000 A 
ENDBRANCH  26  32
BRANCH  25  38
ATOM     38  C   UNL     1       4.763  -1.890   1.447  0.00  0.00    +0.000 C 
BRANCH  38  42
ATOM     39  F   UNL     1       3.032  -1.425   3.028  0.00  0.00    +0.000 F 
ATOM     40  F   UNL     1       2.747  -0.736   0.968  0.00  0.00    +0.000 F 
ATOM     41  F   UNL     1       4.206   0.246   2.249  0.00  0.00    +0.000 F 
ATOM     42  C   UNL     1       3.662  -0.960   1.937  0.00  0.00    +0.000 C 
ENDBRANCH  38  42
ENDBRANCH  25  38
ENDBRANCH   2  29
TORSDOF 5
ENDMDL
MODEL 14
REMARK VINA RESULT:     0.003      3.404      6.578
REMARK INTER + INTRA:          -2.471
REMARK INTER:                   0.000
REMARK INTRA:                  -2.471
REMARK UNBOUND:                -2.475
REMARK  Name = 68748835
REMARK  6 active torsions:
REMARK  status: ('A' for Active; 'I' for Inactive)
REMARK    1  A    between atoms: N_7  and  C_28
REMARK    2  A    between atoms: N_9  and  C_18
REMARK    3  A    between atoms: C_13  and  C_24
REMARK    4  A    between atoms: C_16  and  C_26
REMARK    5  A    between atoms: C_28  and  C_35
REMARK    6  A    between atoms: C_29  and  C_31
REMARK                            x       y       z     vdW  Elec       q    Type
REMARK                         _______ _______ _______ _____ _____    ______ ____
ROOT
ATOM      1  O   UNL     1      -3.282   4.076   1.942  0.00  0.00    +0.000 OA
ATOM      2  N   UNL     1      -1.370   2.840   1.694  0.00  0.00    +0.000 N 
ATOM      3  C   UNL     1      -2.720   3.044   1.614  0.00  0.00    +0.000 C 
ATOM      4  H   UNL     1      -0.996   2.107   1.105  0.00  0.00    +0.000 HD
ENDROOT
BRANCH   3  18
ATOM      5  O   UNL     1      -3.395  -3.049  -2.074  0.00  0.00    +0.000 OA
ATOM      6  N   UNL     1      -4.688  -4.666  -1.037  0.00  0.00    +0.000 N 
ATOM      7  N   UNL     1      -5.363   1.113  -0.252  0.00  0.00    +0.000 NA
ATOM      8  N   UNL     1      -6.126  -5.854   0.472  0.00  0.00    +0.000 NA
ATOM      9  C   UNL     1      -4.723  -2.515  -0.055  0.00  0.00    +0.000 C 
ATOM     10  C   UNL     1      -3.554  -1.932   0.770  0.00  0.00    +0.000 C 
ATOM     11  C   UNL     1      -5.560  -1.357  -0.643  0.00  0.00    +0.000 C 
ATOM     12  C   UNL     1      -3.790  -0.463   0.686  0.00  0.00    +0.000 A 
ATOM     13  C   UNL     1      -5.557  -3.512   0.706  0.00  0.00    +0.000 A 
ATOM     14  C   UNL     1      -4.912  -0.140  -0.059  0.00  0.00    +0.000 A 
ATOM     15  C   UNL     1      -4.166  -3.396  -1.196  0.00  0.00    +0.000 C 
ATOM     16  C   UNL     1      -5.501  -4.746   0.074  0.00  0.00    +0.000 A 
ATOM     17  C   UNL     1      -3.044   0.555   1.242  0.00  0.00    +0.000 A 
ATOM     18  C   UNL     1      -3.468   1.881   1.055  0.00  0.00    +0.000 A 
ATOM     19  C   UNL     1      -6.319  -3.380   1.851  0.00  0.00    +0.000 A 
ATOM     20  C   UNL     1      -4.628   2.104   0.324  0.00  0.00    +0.000 A 
ATOM     21  C   UNL     1      -6.997  -4.513   2.305  0.00  0.00    +0.000 A 
ATOM     22  C   UNL     1      -6.874  -5.707   1.591  0.00  0.00    +0.000 A 
ATOM     23  H   UNL     1      -4.496  -5.450  -1.640  0.00  0.00    +0.000 HD
ENDBRANCH   3  18
BRANCH   2  29
ATOM     24  O   UNL     1      -0.126   4.985   0.120  0.00  0.00    +0.000 OA
ATOM     25  N   UNL     1       1.217   3.159   0.458  0.00  0.00    +0.000 N 
ATOM     26  C   UNL     1       1.532   2.098   2.732  0.00  0.00    +0.000 C 
ATOM     27  C   UNL     1       2.195   2.602   1.406  0.00  0.00    +0.000 C 
ATOM     28  C   UNL     1       0.579   3.192   3.261  0.00  0.00    +0.000 C 
ATOM     29  C   UNL     1      -0.369   3.774   2.212  0.00  0.00    +0.000 C 
ATOM     30  C   UNL     1       0.344   4.156   0.899  0.00  0.00    +0.000 C 
ATOM     31  C   UNL     1       3.215   1.629   0.811  0.00  0.00    +0.000 C 
BRANCH  26  32
ATOM     32  C   UNL     1       0.935   0.692   2.742  0.00  0.00    +0.000 A 
ATOM     33  C   UNL     1      -0.154   0.397   3.577  0.00  0.00    +0.000 A 
ATOM     34  C   UNL     1       1.466  -0.365   1.998  0.00  0.00    +0.000 A 
ATOM     35  C   UNL     1      -0.620  -0.918   3.715  0.00  0.00    +0.000 A 
ATOM     36  C   UNL     1       1.010  -1.675   2.130  0.00  0.00    +0.000 A 
ATOM     37  C   UNL     1      -0.021  -1.958   3.008  0.00  0.00    +0.000 A 
ENDBRANCH  26  32
BRANCH  25  38
ATOM     38  C   UNL     1       1.022   2.661  -0.919  0.00  0.00    +0.000 C 
BRANCH  38  42
ATOM     39  F   UNL     1      -1.293   2.293  -1.385  0.00  0.00    +0.000 F 
ATOM     40  F   UNL     1      -0.229   0.769  -0.226  0.00  0.00    +0.000 F 
ATOM     41  F   UNL     1       0.180   0.999  -2.350  0.00  0.00    +0.000 F 
ATOM     42  C   UNL     1      -0.109   1.684  -1.213  0.00  0.00    +0.000 C 
ENDBRANCH  38  42
ENDBRANCH  25  38
ENDBRANCH   2  29
TORSDOF 5
ENDMDL
MODEL 15
REMARK VINA RESULT:     0.003      3.704      7.095
REMARK INTER + INTRA:          -2.471
REMARK INTER:                   0.000
REMARK INTRA:                  -2.471
REMARK UNBOUND:                -2.475
REMARK  Name = 68748835
REMARK  6 active torsions:
REMARK  status: ('A' for Active; 'I' for Inactive)
REMARK    1  A    between atoms: N_7  and  C_28
REMARK    2  A    between atoms: N_9  and  C_18
REMARK    3  A    between atoms: C_13  and  C_24
REMARK    4  A    between atoms: C_16  and  C_26
REMARK    5  A    between atoms: C_28  and  C_35
REMARK    6  A    between atoms: C_29  and  C_31
REMARK                            x       y       z     vdW  Elec       q    Type
REMARK                         _______ _______ _______ _____ _____    ______ ____
ROOT
ATOM      1  O   UNL     1      -6.130   2.400   2.843  0.00  0.00    +0.000 OA
ATOM      2  N   UNL     1      -5.828   1.205   0.912  0.00  0.00    +0.000 N 
ATOM      3  C   UNL     1      -5.400   1.814   2.060  0.00  0.00    +0.000 C 
ATOM      4  H   UNL     1      -5.217   0.493   0.534  0.00  0.00    +0.000 HD
ENDROOT
BRANCH   3  18
ATOM      5  O   UNL     1       1.044  -1.174   1.214  0.00  0.00    +0.000 OA
ATOM      6  N   UNL     1       2.777   0.336   0.928  0.00  0.00    +0.000 N 
ATOM      7  N   UNL     1      -2.143   1.478   3.921  0.00  0.00    +0.000 NA
ATOM      8  N   UNL     1       4.090   2.336   0.751  0.00  0.00    +0.000 NA
ATOM      9  C   UNL     1       0.694   1.250   1.574  0.00  0.00    +0.000 C 
ATOM     10  C   UNL     1      -0.511   1.392   0.617  0.00  0.00    +0.000 C 
ATOM     11  C   UNL     1       0.184   1.184   3.031  0.00  0.00    +0.000 C 
ATOM     12  C   UNL     1      -1.669   1.470   1.553  0.00  0.00    +0.000 A 
ATOM     13  C   UNL     1       1.750   2.305   1.370  0.00  0.00    +0.000 A 
ATOM     14  C   UNL     1      -1.292   1.392   2.883  0.00  0.00    +0.000 A 
ATOM     15  C   UNL     1       1.480  -0.035   1.231  0.00  0.00    +0.000 C 
ATOM     16  C   UNL     1       2.945   1.702   1.003  0.00  0.00    +0.000 A 
ATOM     17  C   UNL     1      -3.007   1.600   1.246  0.00  0.00    +0.000 A 
ATOM     18  C   UNL     1      -3.935   1.678   2.298  0.00  0.00    +0.000 A 
ATOM     19  C   UNL     1       1.704   3.680   1.496  0.00  0.00    +0.000 A 
ATOM     20  C   UNL     1      -3.457   1.630   3.602  0.00  0.00    +0.000 A 
ATOM     21  C   UNL     1       2.881   4.387   1.246  0.00  0.00    +0.000 A 
ATOM     22  C   UNL     1       4.031   3.681   0.885  0.00  0.00    +0.000 A 
ATOM     23  H   UNL     1       3.514  -0.299   0.667  0.00  0.00    +0.000 HD
ENDBRANCH   3  18
BRANCH   2  29
ATOM     24  O   UNL     1      -7.877  -0.731   1.735  0.00  0.00    +0.000 OA
ATOM     25  N   UNL     1      -6.948  -1.152  -0.317  0.00  0.00    +0.000 N 
ATOM     26  C   UNL     1      -6.681   0.635  -2.087  0.00  0.00    +0.000 C 
ATOM     27  C   UNL     1      -7.105  -0.833  -1.745  0.00  0.00    +0.000 C 
ATOM     28  C   UNL     1      -7.341   1.595  -1.072  0.00  0.00    +0.000 C 
ATOM     29  C   UNL     1      -7.196   1.174   0.391  0.00  0.00    +0.000 C 
ATOM     30  C   UNL     1      -7.538  -0.311   0.629  0.00  0.00    +0.000 C 
ATOM     31  C   UNL     1      -6.566  -1.880  -2.722  0.00  0.00    +0.000 C 
BRANCH  26  32
ATOM     32  C   UNL     1      -5.199   0.912  -2.334  0.00  0.00    +0.000 A 
ATOM     33  C   UNL     1      -4.661   2.172  -2.036  0.00  0.00    +0.000 A 
ATOM     34  C   UNL     1      -4.340  -0.022  -2.920  0.00  0.00    +0.000 A 
ATOM     35  C   UNL     1      -3.344   2.495  -2.393  0.00  0.00    +0.000 A 
ATOM     36  C   UNL     1      -3.031   0.291  -3.280  0.00  0.00    +0.000 A 
ATOM     37  C   UNL     1      -2.536   1.560  -3.038  0.00  0.00    +0.000 A 
ENDBRANCH  26  32
BRANCH  25  38
ATOM     38  C   UNL     1      -6.115  -2.257   0.198  0.00  0.00    +0.000 C 
BRANCH  38  42
ATOM     39  F   UNL     1      -4.680  -1.511   1.957  0.00  0.00    +0.000 F 
ATOM     40  F   UNL     1      -4.081  -1.074  -0.104  0.00  0.00    +0.000 F 
ATOM     41  F   UNL     1      -3.974  -3.112   0.649  0.00  0.00    +0.000 F 
ATOM     42  C   UNL     1      -4.705  -1.968   0.695  0.00  0.00    +0.000 C 
ENDBRANCH  38  42
ENDBRANCH  25  38
ENDBRANCH   2  29
TORSDOF 5
ENDMDL
MODEL 16
REMARK VINA RESULT:     0.003      4.038      6.181
REMARK INTER + INTRA:          -2.470
REMARK INTER:                   0.000
REMARK INTRA:                  -2.470
REMARK UNBOUND:                -2.475
REMARK  Name = 68748835
REMARK  6 active torsions:
REMARK  status: ('A' for Active; 'I' for Inactive)
REMARK    1  A    between atoms: N_7  and  C_28
REMARK    2  A    between atoms: N_9  and  C_18
REMARK    3  A    between atoms: C_13  and  C_24
REMARK    4  A    between atoms: C_16  and  C_26
REMARK    5  A    between atoms: C_28  and  C_35
REMARK    6  A    between atoms: C_29  and  C_31
REMARK                            x       y       z     vdW  Elec       q    Type
REMARK                         _______ _______ _______ _____ _____    ______ ____
ROOT
ATOM      1  O   UNL     1      -0.083   3.770   0.997  0.00  0.00    +0.000 OA
ATOM      2  N   UNL     1       0.783   2.349  -0.577  0.00  0.00    +0.000 N 
ATOM      3  C   UNL     1      -0.234   2.904   0.151  0.00  0.00    +0.000 C 
ATOM      4  H   UNL     1       0.515   1.905  -1.446  0.00  0.00    +0.000 HD
ENDROOT
BRANCH   3  18
ATOM      5  O   UNL     1      -5.001  -0.377  -4.054  0.00  0.00    +0.000 OA
ATOM      6  N   UNL     1      -6.361  -1.902  -2.964  0.00  0.00    +0.000 N 
ATOM      7  N   UNL     1      -3.958   2.805  -0.407  0.00  0.00    +0.000 NA
ATOM      8  N   UNL     1      -7.454  -3.246  -1.304  0.00  0.00    +0.000 NA
ATOM      9  C   UNL     1      -5.022  -0.526  -1.584  0.00  0.00    +0.000 C 
ATOM     10  C   UNL     1      -3.498  -0.712  -1.411  0.00  0.00    +0.000 C 
ATOM     11  C   UNL     1      -5.394   0.943  -1.279  0.00  0.00    +0.000 C 
ATOM     12  C   UNL     1      -3.050   0.633  -0.950  0.00  0.00    +0.000 A 
ATOM     13  C   UNL     1      -5.842  -1.513  -0.795  0.00  0.00    +0.000 A 
ATOM     14  C   UNL     1      -4.092   1.539  -0.841  0.00  0.00    +0.000 A 
ATOM     15  C   UNL     1      -5.428  -0.884  -3.031  0.00  0.00    +0.000 C 
ATOM     16  C   UNL     1      -6.608  -2.280  -1.661  0.00  0.00    +0.000 A 
ATOM     17  C   UNL     1      -1.772   1.048  -0.641  0.00  0.00    +0.000 A 
ATOM     18  C   UNL     1      -1.580   2.368  -0.199  0.00  0.00    +0.000 A 
ATOM     19  C   UNL     1      -5.938  -1.741   0.565  0.00  0.00    +0.000 A 
ATOM     20  C   UNL     1      -2.694   3.191  -0.084  0.00  0.00    +0.000 A 
ATOM     21  C   UNL     1      -6.816  -2.740   0.988  0.00  0.00    +0.000 A 
ATOM     22  C   UNL     1      -7.542  -3.452   0.031  0.00  0.00    +0.000 A 
ATOM     23  H   UNL     1      -6.802  -2.335  -3.758  0.00  0.00    +0.000 HD
ENDBRANCH   3  18
BRANCH   2  29
ATOM     24  O   UNL     1       2.132   4.585  -1.920  0.00  0.00    +0.000 OA
ATOM     25  N   UNL     1       2.505   2.540  -2.884  0.00  0.00    +0.000 N 
ATOM     26  C   UNL     1       3.170   0.501  -1.543  0.00  0.00    +0.000 C 
ATOM     27  C   UNL     1       3.406   1.378  -2.818  0.00  0.00    +0.000 C 
ATOM     28  C   UNL     1       3.117   1.424  -0.305  0.00  0.00    +0.000 C 
ATOM     29  C   UNL     1       2.212   2.646  -0.460  0.00  0.00    +0.000 C 
ATOM     30  C   UNL     1       2.436   3.401  -1.786  0.00  0.00    +0.000 C 
ATOM     31  C   UNL     1       3.543   0.572  -4.112  0.00  0.00    +0.000 C 
BRANCH  26  32
ATOM     32  C   UNL     1       2.057  -0.544  -1.591  0.00  0.00    +0.000 A 
ATOM     33  C   UNL     1       1.384  -0.907  -0.414  0.00  0.00    +0.000 A 
ATOM     34  C   UNL     1       1.707  -1.228  -2.758  0.00  0.00    +0.000 A 
ATOM     35  C   UNL     1       0.467  -1.967  -0.408  0.00  0.00    +0.000 A 
ATOM     36  C   UNL     1       0.798  -2.285  -2.760  0.00  0.00    +0.000 A 
ATOM     37  C   UNL     1       0.192  -2.672  -1.578  0.00  0.00    +0.000 A 
ENDBRANCH  26  32
BRANCH  25  38
ATOM     38  C   UNL     1       1.580   2.809  -4.003  0.00  0.00    +0.000 C 
BRANCH  38  42
ATOM     39  F   UNL     1      -0.619   3.301  -3.206  0.00  0.00    +0.000 F 
ATOM     40  F   UNL     1      -0.007   1.199  -3.285  0.00  0.00    +0.000 F 
ATOM     41  F   UNL     1      -0.413   2.280  -5.127  0.00  0.00    +0.000 F 
ATOM     42  C   UNL     1       0.117   2.404  -3.883  0.00  0.00    +0.000 C 
ENDBRANCH  38  42
ENDBRANCH  25  38
ENDBRANCH   2  29
TORSDOF 5
ENDMDL
MODEL 17
REMARK VINA RESULT:     0.004      4.171      6.746
REMARK INTER + INTRA:          -2.470
REMARK INTER:                   0.000
REMARK INTRA:                  -2.470
REMARK UNBOUND:                -2.475
REMARK  Name = 68748835
REMARK  6 active torsions:
REMARK  status: ('A' for Active; 'I' for Inactive)
REMARK    1  A    between atoms: N_7  and  C_28
REMARK    2  A    between atoms: N_9  and  C_18
REMARK    3  A    between atoms: C_13  and  C_24
REMARK    4  A    between atoms: C_16  and  C_26
REMARK    5  A    between atoms: C_28  and  C_35
REMARK    6  A    between atoms: C_29  and  C_31
REMARK                            x       y       z     vdW  Elec       q    Type
REMARK                         _______ _______ _______ _____ _____    ______ ____
ROOT
ATOM      1  O   UNL     1      -0.346  -2.348  -1.009  0.00  0.00    +0.000 OA
ATOM      2  N   UNL     1      -2.211  -2.349   0.320  0.00  0.00    +0.000 N 
ATOM      3  C   UNL     1      -1.503  -2.019  -0.803  0.00  0.00    +0.000 C 
ATOM      4  H   UNL     1      -3.219  -2.313   0.235  0.00  0.00    +0.000 HD
ENDROOT
BRANCH   3  18
ATOM      5  O   UNL     1      -7.496   0.446  -3.833  0.00  0.00    +0.000 OA
ATOM      6  N   UNL     1      -7.464   2.706  -4.333  0.00  0.00    +0.000 N 
ATOM      7  N   UNL     1      -2.689  -0.702  -4.126  0.00  0.00    +0.000 NA
ATOM      8  N   UNL     1      -6.805   4.992  -4.648  0.00  0.00    +0.000 NA
ATOM      9  C   UNL     1      -5.402   1.756  -3.673  0.00  0.00    +0.000 C 
ATOM     10  C   UNL     1      -5.067   1.367  -2.215  0.00  0.00    +0.000 C 
ATOM     11  C   UNL     1      -4.540   0.911  -4.637  0.00  0.00    +0.000 C 
ATOM     12  C   UNL     1      -3.981   0.360  -2.384  0.00  0.00    +0.000 A 
ATOM     13  C   UNL     1      -5.299   3.235  -3.938  0.00  0.00    +0.000 A 
ATOM     14  C   UNL     1      -3.661   0.130  -3.711  0.00  0.00    +0.000 A 
ATOM     15  C   UNL     1      -6.902   1.504  -3.946  0.00  0.00    +0.000 C 
ATOM     16  C   UNL     1      -6.537   3.726  -4.329  0.00  0.00    +0.000 A 
ATOM     17  C   UNL     1      -3.300  -0.333  -1.405  0.00  0.00    +0.000 A 
ATOM     18  C   UNL     1      -2.286  -1.225  -1.792  0.00  0.00    +0.000 A 
ATOM     19  C   UNL     1      -4.227   4.104  -3.863  0.00  0.00    +0.000 A 
ATOM     20  C   UNL     1      -2.010  -1.359  -3.147  0.00  0.00    +0.000 A 
ATOM     21  C   UNL     1      -4.459   5.440  -4.192  0.00  0.00    +0.000 A 
ATOM     22  C   UNL     1      -5.744   5.829  -4.576  0.00  0.00    +0.000 A 
ATOM     23  H   UNL     1      -8.433   2.841  -4.575  0.00  0.00    +0.000 HD
ENDBRANCH   3  18
BRANCH   2  29
ATOM     24  O   UNL     1      -2.147  -5.281   0.486  0.00  0.00    +0.000 OA
ATOM     25  N   UNL     1      -3.844  -4.303   1.676  0.00  0.00    +0.000 N 
ATOM     26  C   UNL     1      -3.470  -2.343   3.229  0.00  0.00    +0.000 C 
ATOM     27  C   UNL     1      -4.151  -3.733   2.997  0.00  0.00    +0.000 C 
ATOM     28  C   UNL     1      -1.980  -2.445   2.832  0.00  0.00    +0.000 C 
ATOM     29  C   UNL     1      -1.725  -3.103   1.477  0.00  0.00    +0.000 C 
ATOM     30  C   UNL     1      -2.508  -4.418   1.286  0.00  0.00    +0.000 C 
ATOM     31  C   UNL     1      -5.623  -3.782   3.415  0.00  0.00    +0.000 C 
BRANCH  26  32
ATOM     32  C   UNL     1      -4.176  -1.101   2.687  0.00  0.00    +0.000 A 
ATOM     33  C   UNL     1      -3.426   0.018   2.294  0.00  0.00    +0.000 A 
ATOM     34  C   UNL     1      -5.567  -0.987   2.621  0.00  0.00    +0.000 A 
ATOM     35  C   UNL     1      -4.058   1.218   1.937  0.00  0.00    +0.000 A 
ATOM     36  C   UNL     1      -6.203   0.202   2.269  0.00  0.00    +0.000 A 
ATOM     37  C   UNL     1      -5.448   1.316   1.948  0.00  0.00    +0.000 A 
ENDBRANCH  26  32
BRANCH  25  38
ATOM     38  C   UNL     1      -4.866  -4.675   0.676  0.00  0.00    +0.000 C 
BRANCH  38  42
ATOM     39  F   UNL     1      -4.334  -3.784  -1.477  0.00  0.00    +0.000 F 
ATOM     40  F   UNL     1      -5.238  -2.434  -0.007  0.00  0.00    +0.000 F 
ATOM     41  F   UNL     1      -6.439  -3.996  -0.931  0.00  0.00    +0.000 F 
ATOM     42  C   UNL     1      -5.200  -3.710  -0.453  0.00  0.00    +0.000 C 
ENDBRANCH  38  42
ENDBRANCH  25  38
ENDBRANCH   2  29
TORSDOF 5
ENDMDL
MODEL 18
REMARK VINA RESULT:     0.004      4.521      6.710
REMARK INTER + INTRA:          -2.469
REMARK INTER:                   0.000
REMARK INTRA:                  -2.469
REMARK UNBOUND:                -2.475
REMARK  Name = 68748835
REMARK  6 active torsions:
REMARK  status: ('A' for Active; 'I' for Inactive)
REMARK    1  A    between atoms: N_7  and  C_28
REMARK    2  A    between atoms: N_9  and  C_18
REMARK    3  A    between atoms: C_13  and  C_24
REMARK    4  A    between atoms: C_16  and  C_26
REMARK    5  A    between atoms: C_28  and  C_35
REMARK    6  A    between atoms: C_29  and  C_31
REMARK                            x       y       z     vdW  Elec       q    Type
REMARK                         _______ _______ _______ _____ _____    ______ ____
ROOT
ATOM      1  O   UNL     1      -1.436  -3.211  -2.715  0.00  0.00    +0.000 OA
ATOM      2  N   UNL     1      -3.666  -3.165  -2.191  0.00  0.00    +0.000 N 
ATOM      3  C   UNL     1      -2.434  -2.597  -2.373  0.00  0.00    +0.000 C 
ATOM      4  H   UNL     1      -4.456  -2.534  -2.236  0.00  0.00    +0.000 HD
ENDROOT
BRANCH   3  18
ATOM      5  O   UNL     1      -5.364   3.900  -1.759  0.00  0.00    +0.000 OA
ATOM      6  N   UNL     1      -4.590   5.141   0.036  0.00  0.00    +0.000 N 
ATOM      7  N   UNL     1      -1.455   1.022  -2.734  0.00  0.00    +0.000 NA
ATOM      8  N   UNL     1      -3.380   5.911   1.960  0.00  0.00    +0.000 NA
ATOM      9  C   UNL     1      -3.411   3.147  -0.438  0.00  0.00    +0.000 C 
ATOM     10  C   UNL     1      -3.954   1.736  -0.119  0.00  0.00    +0.000 C 
ATOM     11  C   UNL     1      -2.389   3.051  -1.593  0.00  0.00    +0.000 C 
ATOM     12  C   UNL     1      -3.182   0.866  -1.052  0.00  0.00    +0.000 A 
ATOM     13  C   UNL     1      -2.866   3.868   0.767  0.00  0.00    +0.000 A 
ATOM     14  C   UNL     1      -2.294   1.578  -1.841  0.00  0.00    +0.000 A 
ATOM     15  C   UNL     1      -4.579   4.074  -0.842  0.00  0.00    +0.000 C 
ATOM     16  C   UNL     1      -3.595   5.030   0.983  0.00  0.00    +0.000 A 
ATOM     17  C   UNL     1      -3.261  -0.502  -1.205  0.00  0.00    +0.000 A 
ATOM     18  C   UNL     1      -2.414  -1.126  -2.137  0.00  0.00    +0.000 A 
ATOM     19  C   UNL     1      -1.820   3.565   1.617  0.00  0.00    +0.000 A 
ATOM     20  C   UNL     1      -1.528  -0.332  -2.855  0.00  0.00    +0.000 A 
ATOM     21  C   UNL     1      -1.554   4.462   2.653  0.00  0.00    +0.000 A 
ATOM     22  C   UNL     1      -2.348   5.604   2.779  0.00  0.00    +0.000 A 
ATOM     23  H   UNL     1      -5.246   5.905   0.011  0.00  0.00    +0.000 HD
ENDBRANCH   3  18
BRANCH   2  29
ATOM     24  O   UNL     1      -4.339  -4.477  -4.731  0.00  0.00    +0.000 OA
ATOM     25  N   UNL     1      -6.142  -4.035  -3.388  0.00  0.00    +0.000 N 
ATOM     26  C   UNL     1      -6.185  -4.614  -0.926  0.00  0.00    +0.000 C 
ATOM     27  C   UNL     1      -6.941  -4.616  -2.297  0.00  0.00    +0.000 C 
ATOM     28  C   UNL     1      -4.764  -5.181  -1.140  0.00  0.00    +0.000 C 
ATOM     29  C   UNL     1      -4.010  -4.582  -2.327  0.00  0.00    +0.000 C 
ATOM     30  C   UNL     1      -4.856  -4.528  -3.615  0.00  0.00    +0.000 C 
ATOM     31  C   UNL     1      -8.391  -4.134  -2.209  0.00  0.00    +0.000 C 
BRANCH  26  32
ATOM     32  C   UNL     1      -6.228  -3.338  -0.088  0.00  0.00    +0.000 A 
ATOM     33  C   UNL     1      -5.159  -3.020   0.763  0.00  0.00    +0.000 A 
ATOM     34  C   UNL     1      -7.331  -2.480  -0.067  0.00  0.00    +0.000 A 
ATOM     35  C   UNL     1      -5.242  -1.937   1.650  0.00  0.00    +0.000 A 
ATOM     36  C   UNL     1      -7.423  -1.403   0.813  0.00  0.00    +0.000 A 
ATOM     37  C   UNL     1      -6.386  -1.143   1.691  0.00  0.00    +0.000 A 
ENDBRANCH  26  32
BRANCH  25  38
ATOM     38  C   UNL     1      -6.571  -2.883  -4.207  0.00  0.00    +0.000 C 
BRANCH  38  42
ATOM     39  F   UNL     1      -4.843  -1.239  -4.359  0.00  0.00    +0.000 F 
ATOM     40  F   UNL     1      -6.044  -1.293  -2.528  0.00  0.00    +0.000 F 
ATOM     41  F   UNL     1      -6.922  -0.567  -4.380  0.00  0.00    +0.000 F 
ATOM     42  C   UNL     1      -6.067  -1.488  -3.865  0.00  0.00    +0.000 C 
ENDBRANCH  38  42
ENDBRANCH  25  38
ENDBRANCH   2  29
TORSDOF 5
ENDMDL
MODEL 19
REMARK VINA RESULT:     0.004      4.603      8.162
REMARK INTER + INTRA:          -2.469
REMARK INTER:                   0.000
REMARK INTRA:                  -2.469
REMARK UNBOUND:                -2.475
REMARK  Name = 68748835
REMARK  6 active torsions:
REMARK  status: ('A' for Active; 'I' for Inactive)
REMARK    1  A    between atoms: N_7  and  C_28
REMARK    2  A    between atoms: N_9  and  C_18
REMARK    3  A    between atoms: C_13  and  C_24
REMARK    4  A    between atoms: C_16  and  C_26
REMARK    5  A    between atoms: C_28  and  C_35
REMARK    6  A    between atoms: C_29  and  C_31
REMARK                            x       y       z     vdW  Elec       q    Type
REMARK                         _______ _______ _______ _____ _____    ______ ____
ROOT
ATOM      1  O   UNL     1      -4.429  -0.787   1.608  0.00  0.00    +0.000 OA
ATOM      2  N   UNL     1      -5.493   0.478   0.022  0.00  0.00    +0.000 N 
ATOM      3  C   UNL     1      -4.390  -0.055   0.632  0.00  0.00    +0.000 C 
ATOM      4  H   UNL     1      -5.367   0.780  -0.935  0.00  0.00    +0.000 HD
ENDROOT
BRANCH   3  18
ATOM      5  O   UNL     1      -0.313   2.254  -4.773  0.00  0.00    +0.000 OA
ATOM      6  N   UNL     1       1.307   3.794  -4.169  0.00  0.00    +0.000 N 
ATOM      7  N   UNL     1      -0.835  -0.330  -0.582  0.00  0.00    +0.000 NA
ATOM      8  N   UNL     1       2.762   5.251  -2.938  0.00  0.00    +0.000 NA
ATOM      9  C   UNL     1       0.174   2.722  -2.392  0.00  0.00    +0.000 C 
ATOM     10  C   UNL     1      -1.279   3.052  -1.982  0.00  0.00    +0.000 C 
ATOM     11  C   UNL     1       0.515   1.281  -1.951  0.00  0.00    +0.000 C 
ATOM     12  C   UNL     1      -1.706   1.819  -1.261  0.00  0.00    +0.000 A 
ATOM     13  C   UNL     1       1.179   3.736  -1.910  0.00  0.00    +0.000 A 
ATOM     14  C   UNL     1      -0.714   0.854  -1.209  0.00  0.00    +0.000 A 
ATOM     15  C   UNL     1       0.324   2.854  -3.924  0.00  0.00    +0.000 C 
ATOM     16  C   UNL     1       1.812   4.319  -2.999  0.00  0.00    +0.000 A 
ATOM     17  C   UNL     1      -2.926   1.551  -0.676  0.00  0.00    +0.000 A 
ATOM     18  C   UNL     1      -3.105   0.321  -0.022  0.00  0.00    +0.000 A 
ATOM     19  C   UNL     1       1.539   4.130  -0.635  0.00  0.00    +0.000 A 
ATOM     20  C   UNL     1      -2.037  -0.567   0.011  0.00  0.00    +0.000 A 
ATOM     21  C   UNL     1       2.534   5.102  -0.521  0.00  0.00    +0.000 A 
ATOM     22  C   UNL     1       3.108   5.622  -1.683  0.00  0.00    +0.000 A 
ATOM     23  H   UNL     1       1.616   4.083  -5.083  0.00  0.00    +0.000 HD
ENDBRANCH   3  18
BRANCH   2  29
ATOM     24  O   UNL     1      -7.189  -1.798  -0.731  0.00  0.00    +0.000 OA
ATOM     25  N   UNL     1      -7.621   0.128  -1.894  0.00  0.00    +0.000 N 
ATOM     26  C   UNL     1      -7.912   2.371  -0.760  0.00  0.00    +0.000 C 
ATOM     27  C   UNL     1      -8.429   1.357  -1.836  0.00  0.00    +0.000 C 
ATOM     28  C   UNL     1      -7.681   1.615   0.567  0.00  0.00    +0.000 C 
ATOM     29  C   UNL     1      -6.889   0.314   0.431  0.00  0.00    +0.000 C 
ATOM     30  C   UNL     1      -7.397  -0.586  -0.714  0.00  0.00    +0.000 C 
ATOM     31  C   UNL     1      -8.758   1.997  -3.187  0.00  0.00    +0.000 C 
BRANCH  26  32
ATOM     32  C   UNL     1      -6.771   3.308  -1.151  0.00  0.00    +0.000 A 
ATOM     33  C   UNL     1      -5.871   3.764  -0.176  0.00  0.00    +0.000 A 
ATOM     34  C   UNL     1      -6.607   3.806  -2.447  0.00  0.00    +0.000 A 
ATOM     35  C   UNL     1      -4.911   4.739  -0.482  0.00  0.00    +0.000 A 
ATOM     36  C   UNL     1      -5.658   4.777  -2.759  0.00  0.00    +0.000 A 
ATOM     37  C   UNL     1      -4.821   5.263  -1.770  0.00  0.00    +0.000 A 
ENDBRANCH  26  32
BRANCH  25  38
ATOM     38  C   UNL     1      -6.936  -0.357  -3.109  0.00  0.00    +0.000 C 
BRANCH  38  42
ATOM     39  F   UNL     1      -4.658  -0.917  -2.650  0.00  0.00    +0.000 F 
ATOM     40  F   UNL     1      -5.156   1.200  -2.917  0.00  0.00    +0.000 F 
ATOM     41  F   UNL     1      -5.160  -0.141  -4.630  0.00  0.00    +0.000 F 
ATOM     42  C   UNL     1      -5.456  -0.059  -3.307  0.00  0.00    +0.000 C 
ENDBRANCH  38  42
ENDBRANCH  25  38
ENDBRANCH   2  29
TORSDOF 5
ENDMDL
MODEL 20
REMARK VINA RESULT:     0.004      3.443      6.393
REMARK INTER + INTRA:          -2.469
REMARK INTER:                   0.000
REMARK INTRA:                  -2.469
REMARK UNBOUND:                -2.475
REMARK  Name = 68748835
REMARK  6 active torsions:
REMARK  status: ('A' for Active; 'I' for Inactive)
REMARK    1  A    between atoms: N_7  and  C_28
REMARK    2  A    between atoms: N_9  and  C_18
REMARK    3  A    between atoms: C_13  and  C_24
REMARK    4  A    between atoms: C_16  and  C_26
REMARK    5  A    between atoms: C_28  and  C_35
REMARK    6  A    between atoms: C_29  and  C_31
REMARK                            x       y       z     vdW  Elec       q    Type
REMARK                         _______ _______ _______ _____ _____    ______ ____
ROOT
ATOM      1  O   UNL     1      -2.727   2.991  -3.153  0.00  0.00    +0.000 OA
ATOM      2  N   UNL     1      -1.378   2.980  -1.302  0.00  0.00    +0.000 N 
ATOM      3  C   UNL     1      -2.292   2.432  -2.159  0.00  0.00    +0.000 C 
ATOM      4  H   UNL     1      -0.861   2.326  -0.728  0.00  0.00    +0.000 HD
ENDROOT
BRANCH   3  18
ATOM      5  O   UNL     1      -1.577  -3.872   1.146  0.00  0.00    +0.000 OA
ATOM      6  N   UNL     1      -3.508  -4.657   2.154  0.00  0.00    +0.000 N 
ATOM      7  N   UNL     1      -3.426  -1.139  -2.545  0.00  0.00    +0.000 NA
ATOM      8  N   UNL     1      -5.769  -4.938   2.907  0.00  0.00    +0.000 NA
ATOM      9  C   UNL     1      -3.759  -2.775   0.745  0.00  0.00    +0.000 C 
ATOM     10  C   UNL     1      -3.308  -1.349   1.133  0.00  0.00    +0.000 C 
ATOM     11  C   UNL     1      -3.787  -2.899  -0.795  0.00  0.00    +0.000 C 
ATOM     12  C   UNL     1      -3.154  -0.679  -0.189  0.00  0.00    +0.000 A 
ATOM     13  C   UNL     1      -5.055  -3.192   1.390  0.00  0.00    +0.000 A 
ATOM     14  C   UNL     1      -3.450  -1.514  -1.253  0.00  0.00    +0.000 A 
ATOM     15  C   UNL     1      -2.779  -3.810   1.340  0.00  0.00    +0.000 C 
ATOM     16  C   UNL     1      -4.839  -4.302   2.193  0.00  0.00    +0.000 A 
ATOM     17  C   UNL     1      -2.763   0.617  -0.449  0.00  0.00    +0.000 A 
ATOM     18  C   UNL     1      -2.709   1.050  -1.785  0.00  0.00    +0.000 A 
ATOM     19  C   UNL     1      -6.331  -2.670   1.295  0.00  0.00    +0.000 A 
ATOM     20  C   UNL     1      -3.063   0.150  -2.783  0.00  0.00    +0.000 A 
ATOM     21  C   UNL     1      -7.339  -3.306   2.022  0.00  0.00    +0.000 A 
ATOM     22  C   UNL     1      -7.014  -4.420   2.799  0.00  0.00    +0.000 A 
ATOM     23  H   UNL     1      -3.126  -5.431   2.674  0.00  0.00    +0.000 HD
ENDBRANCH   3  18
BRANCH   2  29
ATOM     24  O   UNL     1       0.958   3.673  -2.941  0.00  0.00    +0.000 OA
ATOM     25  N   UNL     1       1.400   3.473  -0.701  0.00  0.00    +0.000 N 
ATOM     26  C   UNL     1      -0.021   4.579   1.075  0.00  0.00    +0.000 C 
ATOM     27  C   UNL     1       1.416   4.251   0.548  0.00  0.00    +0.000 C 
ATOM     28  C   UNL     1      -0.865   5.137  -0.093  0.00  0.00    +0.000 C 
ATOM     29  C   UNL     1      -0.789   4.318  -1.382  0.00  0.00    +0.000 C 
ATOM     30  C   UNL     1       0.654   3.950  -1.781  0.00  0.00    +0.000 C 
ATOM     31  C   UNL     1       2.376   3.747   1.629  0.00  0.00    +0.000 C 
BRANCH  26  32
ATOM     32  C   UNL     1      -0.736   3.520   1.910  0.00  0.00    +0.000 A 
ATOM     33  C   UNL     1      -2.136   3.437   1.891  0.00  0.00    +0.000 A 
ATOM     34  C   UNL     1      -0.061   2.647   2.769  0.00  0.00    +0.000 A 
ATOM     35  C   UNL     1      -2.818   2.574   2.761  0.00  0.00    +0.000 A 
ATOM     36  C   UNL     1      -0.731   1.789   3.639  0.00  0.00    +0.000 A 
ATOM     37  C   UNL     1      -2.114   1.767   3.653  0.00  0.00    +0.000 A 
ENDBRANCH  26  32
BRANCH  25  38
ATOM     38  C   UNL     1       2.044   2.154  -0.865  0.00  0.00    +0.000 C 
BRANCH  38  42
ATOM     39  F   UNL     1       0.550   0.582  -1.869  0.00  0.00    +0.000 F 
ATOM     40  F   UNL     1       0.313   0.994   0.269  0.00  0.00    +0.000 F 
ATOM     41  F   UNL     1       2.022  -0.155  -0.432  0.00  0.00    +0.000 F 
ATOM     42  C   UNL     1       1.207   0.888  -0.739  0.00  0.00    +0.000 C 
ENDBRANCH  38  42
ENDBRANCH  25  38
ENDBRANCH   2  29
TORSDOF 5
ENDMDL
