MODEL 1
REMARK VINA RESULT:     0.000      0.000      0.000
REMARK INTER + INTRA:          -3.493
REMARK INTER:                   0.000
REMARK INTRA:                  -3.493
REMARK UNBOUND:                -3.493
REMARK  Name = 134611040
REMARK  11 active torsions:
REMARK  status: ('A' for Active; 'I' for Inactive)
REMARK    1  A    between atoms: O_3  and  C_30
REMARK    2  A    between atoms: O_3  and  C_34
REMARK    3  A    between atoms: O_4  and  C_33
REMARK    4  A    between atoms: N_6  and  C_16
REMARK    5  A    between atoms: N_7  and  C_18
REMARK    6  A    between atoms: C_11  and  C_21
REMARK    7  A    between atoms: C_16  and  C_19
REMARK    8  A    between atoms: C_17  and  C_18
REMARK    9  A    between atoms: C_28  and  C_33
REMARK   10  A    between atoms: C_34  and  C_35
REMARK   11  A    between atoms: C_40  and  C_41
REMARK                            x       y       z     vdW  Elec       q    Type
REMARK                         _______ _______ _______ _____ _____    ______ ____
ROOT
ATOM      1  N   UNL     1       3.852  -1.060  -0.591  0.00  0.00    +0.000 NA
ATOM      2  C   UNL     1       4.499   1.813  -0.495  0.00  0.00    +0.000 C 
ATOM      3  C   UNL     1       4.708   0.852   0.678  0.00  0.00    +0.000 C 
ATOM      4  C   UNL     1       3.467   1.235  -1.474  0.00  0.00    +0.000 C 
ATOM      5  C   UNL     1       4.983  -0.568   0.216  0.00  0.00    +0.000 C 
ATOM      6  C   UNL     1       3.760  -0.239  -1.814  0.00  0.00    +0.000 C 
ENDROOT
BRANCH   2   8
ATOM      7  N   UNL     1       2.860   3.478   0.263  0.00  0.00    +0.000 NA
ATOM      8  C   UNL     1       4.162   3.223  -0.028  0.00  0.00    +0.000 A 
ATOM      9  C   UNL     1       5.130   4.228   0.026  0.00  0.00    +0.000 A 
ATOM     10  C   UNL     1       4.744   5.537   0.274  0.00  0.00    +0.000 A 
ATOM     11  C   UNL     1       2.511   4.751   0.559  0.00  0.00    +0.000 A 
ATOM     12  C   UNL     1       3.410   5.809   0.520  0.00  0.00    +0.000 A 
BRANCH  11  13
ATOM     13  O   UNL     1       1.192   4.896   0.905  0.00  0.00    +0.000 OA
BRANCH  13  14
ATOM     14  C   UNL     1       0.327   5.152  -0.203  0.00  0.00    +0.000 C 
BRANCH  14  16
ATOM     15  F   UNL     1       1.084   3.776  -2.486  0.00  0.00    +0.000 F 
ATOM     16  C   UNL     1      -0.412   3.920  -0.658  0.00  0.00    +0.000 A 
ATOM     17  C   UNL     1       0.040   3.272  -1.813  0.00  0.00    +0.000 A 
ATOM     18  C   UNL     1      -1.503   3.376   0.028  0.00  0.00    +0.000 A 
ATOM     19  C   UNL     1      -0.560   2.108  -2.284  0.00  0.00    +0.000 A 
ATOM     20  C   UNL     1      -2.113   2.206  -0.435  0.00  0.00    +0.000 A 
ATOM     21  C   UNL     1      -1.643   1.561  -1.587  0.00  0.00    +0.000 A 
BRANCH  21  23
ATOM     22  N   UNL     1      -2.740  -0.649  -2.397  0.00  0.00    +0.000 NA
ATOM     23  C   UNL     1      -2.249   0.344  -2.038  0.00  0.00    +0.000 C 
ENDBRANCH  21  23
ENDBRANCH  14  16
ENDBRANCH  13  14
ENDBRANCH  11  13
ENDBRANCH   2   8
BRANCH   1  24
ATOM     24  C   UNL     1       3.978  -2.505  -0.915  0.00  0.00    +0.000 C 
BRANCH  24  27
ATOM     25  N   UNL     1       1.455  -3.113  -0.947  0.00  0.00    +0.000 N 
ATOM     26  N   UNL     1       2.653  -3.643  -2.724  0.00  0.00    +0.000 NA
ATOM     27  C   UNL     1       2.720  -3.115  -1.517  0.00  0.00    +0.000 A 
ATOM     28  C   UNL     1       0.575  -3.688  -1.852  0.00  0.00    +0.000 A 
ATOM     29  C   UNL     1       1.366  -3.990  -2.949  0.00  0.00    +0.000 A 
ATOM     30  C   UNL     1      -0.805  -3.937  -1.858  0.00  0.00    +0.000 A 
ATOM     31  C   UNL     1       0.810  -4.537  -4.111  0.00  0.00    +0.000 A 
ATOM     32  C   UNL     1      -1.359  -4.503  -3.026  0.00  0.00    +0.000 A 
ATOM     33  C   UNL     1      -0.564  -4.774  -4.148  0.00  0.00    +0.000 A 
BRANCH  32  35
ATOM     34  O   UNL     1      -3.311  -5.821  -3.330  0.00  0.00    +0.000 OA
ATOM     35  C   UNL     1      -2.825  -4.740  -3.049  0.00  0.00    +0.000 C 
BRANCH  35  36
ATOM     36  O   UNL     1      -3.568  -3.647  -2.777  0.00  0.00    +0.000 OA
ATOM     37  H   UNL     1      -3.175  -2.796  -3.043  0.00  0.00    +0.000 HD
ENDBRANCH  35  36
ENDBRANCH  32  35
BRANCH  25  38
ATOM     38  C   UNL     1       1.060  -2.450   0.289  0.00  0.00    +0.000 C 
BRANCH  38  40
ATOM     39  O   UNL     1      -0.918  -1.123   0.818  0.00  0.00    +0.000 OA
ATOM     40  C   UNL     1       0.351  -1.116   0.084  0.00  0.00    +0.000 C 
ATOM     41  C   UNL     1       0.793   0.127   0.883  0.00  0.00    +0.000 C 
ATOM     42  C   UNL     1      -0.337  -0.259   1.833  0.00  0.00    +0.000 C 
ENDBRANCH  38  40
ENDBRANCH  25  38
ENDBRANCH  24  27
ENDBRANCH   1  24
TORSDOF 11
ENDMDL
MODEL 2
REMARK VINA RESULT:     0.000      3.066      8.895
REMARK INTER + INTRA:          -3.492
REMARK INTER:                   0.000
REMARK INTRA:                  -3.492
REMARK UNBOUND:                -3.493
REMARK  Name = 134611040
REMARK  11 active torsions:
REMARK  status: ('A' for Active; 'I' for Inactive)
REMARK    1  A    between atoms: O_3  and  C_30
REMARK    2  A    between atoms: O_3  and  C_34
REMARK    3  A    between atoms: O_4  and  C_33
REMARK    4  A    between atoms: N_6  and  C_16
REMARK    5  A    between atoms: N_7  and  C_18
REMARK    6  A    between atoms: C_11  and  C_21
REMARK    7  A    between atoms: C_16  and  C_19
REMARK    8  A    between atoms: C_17  and  C_18
REMARK    9  A    between atoms: C_28  and  C_33
REMARK   10  A    between atoms: C_34  and  C_35
REMARK   11  A    between atoms: C_40  and  C_41
REMARK                            x       y       z     vdW  Elec       q    Type
REMARK                         _______ _______ _______ _____ _____    ______ ____
ROOT
ATOM      1  N   UNL     1      -3.275   3.980  -0.325  0.00  0.00    +0.000 NA
ATOM      2  C   UNL     1      -4.920   2.040  -1.813  0.00  0.00    +0.000 C 
ATOM      3  C   UNL     1      -5.401   2.787  -0.566  0.00  0.00    +0.000 C 
ATOM      4  C   UNL     1      -3.385   2.024  -1.860  0.00  0.00    +0.000 C 
ATOM      5  C   UNL     1      -4.738   4.144  -0.417  0.00  0.00    +0.000 C 
ATOM      6  C   UNL     1      -2.788   3.420  -1.599  0.00  0.00    +0.000 C 
ENDROOT
BRANCH   2   8
ATOM      7  N   UNL     1      -4.934  -0.348  -1.239  0.00  0.00    +0.000 NA
ATOM      8  C   UNL     1      -5.541   0.655  -1.926  0.00  0.00    +0.000 A 
ATOM      9  C   UNL     1      -6.636   0.406  -2.757  0.00  0.00    +0.000 A 
ATOM     10  C   UNL     1      -7.048  -0.899  -2.975  0.00  0.00    +0.000 A 
ATOM     11  C   UNL     1      -5.386  -1.610  -1.420  0.00  0.00    +0.000 A 
ATOM     12  C   UNL     1      -6.398  -1.928  -2.316  0.00  0.00    +0.000 A 
BRANCH  11  13
ATOM     13  O   UNL     1      -4.756  -2.541  -0.633  0.00  0.00    +0.000 OA
BRANCH  13  14
ATOM     14  C   UNL     1      -3.589  -3.108  -1.229  0.00  0.00    +0.000 C 
BRANCH  14  16
ATOM     15  F   UNL     1      -2.159  -1.274  -2.735  0.00  0.00    +0.000 F 
ATOM     16  C   UNL     1      -2.315  -2.491  -0.711  0.00  0.00    +0.000 A 
ATOM     17  C   UNL     1      -1.657  -1.562  -1.525  0.00  0.00    +0.000 A 
ATOM     18  C   UNL     1      -1.774  -2.776   0.547  0.00  0.00    +0.000 A 
ATOM     19  C   UNL     1      -0.496  -0.917  -1.112  0.00  0.00    +0.000 A 
ATOM     20  C   UNL     1      -0.608  -2.132   0.973  0.00  0.00    +0.000 A 
ATOM     21  C   UNL     1       0.034  -1.196   0.153  0.00  0.00    +0.000 A 
BRANCH  21  23
ATOM     22  N   UNL     1       2.159   0.045   0.984  0.00  0.00    +0.000 NA
ATOM     23  C   UNL     1       1.208  -0.513   0.608  0.00  0.00    +0.000 C 
ENDBRANCH  21  23
ENDBRANCH  14  16
ENDBRANCH  13  14
ENDBRANCH  11  13
ENDBRANCH   2   8
BRANCH   1  24
ATOM     24  C   UNL     1      -2.586   5.253   0.010  0.00  0.00    +0.000 C 
BRANCH  24  27
ATOM     25  N   UNL     1      -0.605   4.273   1.371  0.00  0.00    +0.000 N 
ATOM     26  N   UNL     1      -0.119   5.621  -0.309  0.00  0.00    +0.000 NA
ATOM     27  C   UNL     1      -1.116   5.084   0.367  0.00  0.00    +0.000 A 
ATOM     28  C   UNL     1       0.779   4.335   1.309  0.00  0.00    +0.000 A 
ATOM     29  C   UNL     1       1.034   5.176   0.238  0.00  0.00    +0.000 A 
ATOM     30  C   UNL     1       1.822   3.730   2.025  0.00  0.00    +0.000 A 
ATOM     31  C   UNL     1       2.345   5.437  -0.179  0.00  0.00    +0.000 A 
ATOM     32  C   UNL     1       3.142   4.008   1.610  0.00  0.00    +0.000 A 
ATOM     33  C   UNL     1       3.398   4.830   0.505  0.00  0.00    +0.000 A 
BRANCH  32  35
ATOM     34  O   UNL     1       5.136   3.970   2.901  0.00  0.00    +0.000 OA
ATOM     35  C   UNL     1       4.250   3.345   2.347  0.00  0.00    +0.000 C 
BRANCH  35  36
ATOM     36  O   UNL     1       4.212   1.997   2.309  0.00  0.00    +0.000 OA
ATOM     37  H   UNL     1       4.170   1.554   3.175  0.00  0.00    +0.000 HD
ENDBRANCH  35  36
ENDBRANCH  32  35
BRANCH  25  38
ATOM     38  C   UNL     1      -1.359   3.355   2.214  0.00  0.00    +0.000 C 
BRANCH  38  40
ATOM     39  O   UNL     1      -0.866   1.069   2.909  0.00  0.00    +0.000 OA
ATOM     40  C   UNL     1      -1.286   1.897   1.774  0.00  0.00    +0.000 C 
ATOM     41  C   UNL     1      -2.574   1.058   1.653  0.00  0.00    +0.000 C 
ATOM     42  C   UNL     1      -2.229   0.587   3.063  0.00  0.00    +0.000 C 
ENDBRANCH  38  40
ENDBRANCH  25  38
ENDBRANCH  24  27
ENDBRANCH   1  24
TORSDOF 11
ENDMDL
MODEL 3
REMARK VINA RESULT:     0.001      2.534      7.841
REMARK INTER + INTRA:          -3.491
REMARK INTER:                   0.000
REMARK INTRA:                  -3.491
REMARK UNBOUND:                -3.493
REMARK  Name = 134611040
REMARK  11 active torsions:
REMARK  status: ('A' for Active; 'I' for Inactive)
REMARK    1  A    between atoms: O_3  and  C_30
REMARK    2  A    between atoms: O_3  and  C_34
REMARK    3  A    between atoms: O_4  and  C_33
REMARK    4  A    between atoms: N_6  and  C_16
REMARK    5  A    between atoms: N_7  and  C_18
REMARK    6  A    between atoms: C_11  and  C_21
REMARK    7  A    between atoms: C_16  and  C_19
REMARK    8  A    between atoms: C_17  and  C_18
REMARK    9  A    between atoms: C_28  and  C_33
REMARK   10  A    between atoms: C_34  and  C_35
REMARK   11  A    between atoms: C_40  and  C_41
REMARK                            x       y       z     vdW  Elec       q    Type
REMARK                         _______ _______ _______ _____ _____    ______ ____
ROOT
ATOM      1  N   UNL     1       0.675  -2.390  -0.061  0.00  0.00    +0.000 NA
ATOM      2  C   UNL     1      -2.082  -3.292  -0.576  0.00  0.00    +0.000 C 
ATOM      3  C   UNL     1      -0.861  -3.793  -1.353  0.00  0.00    +0.000 C 
ATOM      4  C   UNL     1      -1.769  -1.944   0.089  0.00  0.00    +0.000 C 
ATOM      5  C   UNL     1       0.405  -3.766  -0.516  0.00  0.00    +0.000 C 
ATOM      6  C   UNL     1      -0.420  -1.970   0.834  0.00  0.00    +0.000 C 
ENDROOT
BRANCH   2   8
ATOM      7  N   UNL     1      -3.525  -2.159  -2.208  0.00  0.00    +0.000 NA
ATOM      8  C   UNL     1      -3.337  -3.262  -1.437  0.00  0.00    +0.000 A 
ATOM      9  C   UNL     1      -4.290  -4.281  -1.382  0.00  0.00    +0.000 A 
ATOM     10  C   UNL     1      -5.501  -4.122  -2.037  0.00  0.00    +0.000 A 
ATOM     11  C   UNL     1      -4.690  -2.047  -2.886  0.00  0.00    +0.000 A 
ATOM     12  C   UNL     1      -5.717  -2.976  -2.782  0.00  0.00    +0.000 A 
BRANCH  11  13
ATOM     13  O   UNL     1      -4.759  -0.936  -3.688  0.00  0.00    +0.000 OA
BRANCH  13  14
ATOM     14  C   UNL     1      -5.284   0.220  -3.033  0.00  0.00    +0.000 C 
BRANCH  14  16
ATOM     15  F   UNL     1      -4.504   0.390  -0.379  0.00  0.00    +0.000 F 
ATOM     16  C   UNL     1      -4.206   1.176  -2.592  0.00  0.00    +0.000 A 
ATOM     17  C   UNL     1      -3.858   1.194  -1.236  0.00  0.00    +0.000 A 
ATOM     18  C   UNL     1      -3.518   2.023  -3.467  0.00  0.00    +0.000 A 
ATOM     19  C   UNL     1      -2.850   2.018  -0.749  0.00  0.00    +0.000 A 
ATOM     20  C   UNL     1      -2.502   2.855  -2.988  0.00  0.00    +0.000 A 
ATOM     21  C   UNL     1      -2.156   2.854  -1.631  0.00  0.00    +0.000 A 
BRANCH  21  23
ATOM     22  N   UNL     1      -0.222   4.358  -0.768  0.00  0.00    +0.000 NA
ATOM     23  C   UNL     1      -1.091   3.683  -1.151  0.00  0.00    +0.000 C 
ENDBRANCH  21  23
ENDBRANCH  14  16
ENDBRANCH  13  14
ENDBRANCH  11  13
ENDBRANCH   2   8
BRANCH   1  24
ATOM     24  C   UNL     1       1.999  -2.268   0.605  0.00  0.00    +0.000 C 
BRANCH  24  27
ATOM     25  N   UNL     1       2.560   0.167  -0.098  0.00  0.00    +0.000 N 
ATOM     26  N   UNL     1       2.649  -0.319   2.054  0.00  0.00    +0.000 NA
ATOM     27  C   UNL     1       2.432  -0.831   0.858  0.00  0.00    +0.000 A 
ATOM     28  C   UNL     1       2.889   1.346   0.553  0.00  0.00    +0.000 A 
ATOM     29  C   UNL     1       2.920   0.996   1.894  0.00  0.00    +0.000 A 
ATOM     30  C   UNL     1       3.117   2.666   0.139  0.00  0.00    +0.000 A 
ATOM     31  C   UNL     1       3.162   1.955   2.885  0.00  0.00    +0.000 A 
ATOM     32  C   UNL     1       3.375   3.627   1.141  0.00  0.00    +0.000 A 
ATOM     33  C   UNL     1       3.371   3.279   2.498  0.00  0.00    +0.000 A 
BRANCH  32  35
ATOM     34  O   UNL     1       4.580   5.670   1.014  0.00  0.00    +0.000 OA
ATOM     35  C   UNL     1       3.588   5.032   0.709  0.00  0.00    +0.000 C 
BRANCH  35  36
ATOM     36  O   UNL     1       2.569   5.552  -0.007  0.00  0.00    +0.000 OA
ATOM     37  H   UNL     1       2.315   6.463   0.225  0.00  0.00    +0.000 HD
ENDBRANCH  35  36
ENDBRANCH  32  35
BRANCH  25  38
ATOM     38  C   UNL     1       2.215   0.066  -1.510  0.00  0.00    +0.000 C 
BRANCH  38  40
ATOM     39  O   UNL     1       1.039   1.625  -2.971  0.00  0.00    +0.000 OA
ATOM     40  C   UNL     1       0.864   0.674  -1.870  0.00  0.00    +0.000 C 
ATOM     41  C   UNL     1      -0.139  -0.120  -2.731  0.00  0.00    +0.000 C 
ATOM     42  C   UNL     1       0.458   0.665  -3.895  0.00  0.00    +0.000 C 
ENDBRANCH  38  40
ENDBRANCH  25  38
ENDBRANCH  24  27
ENDBRANCH   1  24
TORSDOF 11
ENDMDL
MODEL 4
REMARK VINA RESULT:     0.001      3.173      6.446
REMARK INTER + INTRA:          -3.491
REMARK INTER:                   0.000
REMARK INTRA:                  -3.491
REMARK UNBOUND:                -3.493
REMARK  Name = 134611040
REMARK  11 active torsions:
REMARK  status: ('A' for Active; 'I' for Inactive)
REMARK    1  A    between atoms: O_3  and  C_30
REMARK    2  A    between atoms: O_3  and  C_34
REMARK    3  A    between atoms: O_4  and  C_33
REMARK    4  A    between atoms: N_6  and  C_16
REMARK    5  A    between atoms: N_7  and  C_18
REMARK    6  A    between atoms: C_11  and  C_21
REMARK    7  A    between atoms: C_16  and  C_19
REMARK    8  A    between atoms: C_17  and  C_18
REMARK    9  A    between atoms: C_28  and  C_33
REMARK   10  A    between atoms: C_34  and  C_35
REMARK   11  A    between atoms: C_40  and  C_41
REMARK                            x       y       z     vdW  Elec       q    Type
REMARK                         _______ _______ _______ _____ _____    ______ ____
ROOT
ATOM      1  N   UNL     1      -1.498   2.310  -2.998  0.00  0.00    +0.000 NA
ATOM      2  C   UNL     1       1.415   2.657  -2.723  0.00  0.00    +0.000 C 
ATOM      3  C   UNL     1       0.754   1.854  -3.847  0.00  0.00    +0.000 C 
ATOM      4  C   UNL     1       0.456   2.788  -1.532  0.00  0.00    +0.000 C 
ATOM      5  C   UNL     1      -0.630   2.375  -4.189  0.00  0.00    +0.000 C 
ATOM      6  C   UNL     1      -0.954   3.223  -1.975  0.00  0.00    +0.000 C 
ENDROOT
BRANCH   2   8
ATOM      7  N   UNL     1       2.790   1.078  -1.439  0.00  0.00    +0.000 NA
ATOM      8  C   UNL     1       2.777   2.094  -2.341  0.00  0.00    +0.000 A 
ATOM      9  C   UNL     1       3.963   2.643  -2.834  0.00  0.00    +0.000 A 
ATOM     10  C   UNL     1       5.179   2.224  -2.315  0.00  0.00    +0.000 A 
ATOM     11  C   UNL     1       3.987   0.643  -0.986  0.00  0.00    +0.000 A 
ATOM     12  C   UNL     1       5.193   1.225  -1.357  0.00  0.00    +0.000 A 
BRANCH  11  13
ATOM     13  O   UNL     1       3.900  -0.427  -0.132  0.00  0.00    +0.000 OA
BRANCH  13  14
ATOM     14  C   UNL     1       3.745  -0.063   1.240  0.00  0.00    +0.000 C 
BRANCH  14  16
ATOM     15  F   UNL     1       2.194   2.206   1.593  0.00  0.00    +0.000 F 
ATOM     16  C   UNL     1       2.315  -0.155   1.706  0.00  0.00    +0.000 A 
ATOM     17  C   UNL     1       1.592   1.035   1.847  0.00  0.00    +0.000 A 
ATOM     18  C   UNL     1       1.666  -1.365   1.977  0.00  0.00    +0.000 A 
ATOM     19  C   UNL     1       0.257   1.040   2.237  0.00  0.00    +0.000 A 
ATOM     20  C   UNL     1       0.324  -1.371   2.368  0.00  0.00    +0.000 A 
ATOM     21  C   UNL     1      -0.391  -0.173   2.494  0.00  0.00    +0.000 A 
BRANCH  21  23
ATOM     22  N   UNL     1      -2.903  -0.200   3.152  0.00  0.00    +0.000 NA
ATOM     23  C   UNL     1      -1.775  -0.187   2.861  0.00  0.00    +0.000 C 
ENDBRANCH  21  23
ENDBRANCH  14  16
ENDBRANCH  13  14
ENDBRANCH  11  13
ENDBRANCH   2   8
BRANCH   1  24
ATOM     24  C   UNL     1      -2.914   2.631  -3.316  0.00  0.00    +0.000 C 
BRANCH  24  27
ATOM     25  N   UNL     1      -4.054   1.090  -1.566  0.00  0.00    +0.000 N 
ATOM     26  N   UNL     1      -4.633   3.221  -1.579  0.00  0.00    +0.000 NA
ATOM     27  C   UNL     1      -3.886   2.320  -2.187  0.00  0.00    +0.000 A 
ATOM     28  C   UNL     1      -4.966   1.251  -0.534  0.00  0.00    +0.000 A 
ATOM     29  C   UNL     1      -5.289   2.598  -0.573  0.00  0.00    +0.000 A 
ATOM     30  C   UNL     1      -5.508   0.400   0.441  0.00  0.00    +0.000 A 
ATOM     31  C   UNL     1      -6.153   3.162   0.373  0.00  0.00    +0.000 A 
ATOM     32  C   UNL     1      -6.390   0.970   1.384  0.00  0.00    +0.000 A 
ATOM     33  C   UNL     1      -6.687   2.339   1.365  0.00  0.00    +0.000 A 
BRANCH  32  35
ATOM     34  O   UNL     1      -8.124  -0.204   2.504  0.00  0.00    +0.000 OA
ATOM     35  C   UNL     1      -6.942   0.078   2.437  0.00  0.00    +0.000 C 
BRANCH  35  36
ATOM     36  O   UNL     1      -6.029  -0.351   3.334  0.00  0.00    +0.000 OA
ATOM     37  H   UNL     1      -5.099  -0.262   3.060  0.00  0.00    +0.000 HD
ENDBRANCH  35  36
ENDBRANCH  32  35
BRANCH  25  38
ATOM     38  C   UNL     1      -3.272  -0.117  -1.803  0.00  0.00    +0.000 C 
BRANCH  38  40
ATOM     39  O   UNL     1      -2.348  -1.722  -0.216  0.00  0.00    +0.000 OA
ATOM     40  C   UNL     1      -2.185  -0.373  -0.766  0.00  0.00    +0.000 C 
ATOM     41  C   UNL     1      -0.757  -0.742  -1.216  0.00  0.00    +0.000 C 
ATOM     42  C   UNL     1      -1.215  -2.182  -1.002  0.00  0.00    +0.000 C 
ENDBRANCH  38  40
ENDBRANCH  25  38
ENDBRANCH  24  27
ENDBRANCH   1  24
TORSDOF 11
ENDMDL
MODEL 5
REMARK VINA RESULT:     0.001      4.365      7.165
REMARK INTER + INTRA:          -3.491
REMARK INTER:                   0.000
REMARK INTRA:                  -3.491
REMARK UNBOUND:                -3.493
REMARK  Name = 134611040
REMARK  11 active torsions:
REMARK  status: ('A' for Active; 'I' for Inactive)
REMARK    1  A    between atoms: O_3  and  C_30
REMARK    2  A    between atoms: O_3  and  C_34
REMARK    3  A    between atoms: O_4  and  C_33
REMARK    4  A    between atoms: N_6  and  C_16
REMARK    5  A    between atoms: N_7  and  C_18
REMARK    6  A    between atoms: C_11  and  C_21
REMARK    7  A    between atoms: C_16  and  C_19
REMARK    8  A    between atoms: C_17  and  C_18
REMARK    9  A    between atoms: C_28  and  C_33
REMARK   10  A    between atoms: C_34  and  C_35
REMARK   11  A    between atoms: C_40  and  C_41
REMARK                            x       y       z     vdW  Elec       q    Type
REMARK                         _______ _______ _______ _____ _____    ______ ____
ROOT
ATOM      1  N   UNL     1      -1.563   3.189  -3.534  0.00  0.00    +0.000 NA
ATOM      2  C   UNL     1      -4.159   4.423  -4.183  0.00  0.00    +0.000 C 
ATOM      3  C   UNL     1      -3.241   4.911  -3.060  0.00  0.00    +0.000 C 
ATOM      4  C   UNL     1      -3.828   2.968  -4.543  0.00  0.00    +0.000 C 
ATOM      5  C   UNL     1      -1.777   4.637  -3.354  0.00  0.00    +0.000 C 
ATOM      6  C   UNL     1      -2.313   2.752  -4.727  0.00  0.00    +0.000 C 
ENDROOT
BRANCH   2   8
ATOM      7  N   UNL     1      -6.241   3.688  -3.108  0.00  0.00    +0.000 NA
ATOM      8  C   UNL     1      -5.630   4.642  -3.857  0.00  0.00    +0.000 A 
ATOM      9  C   UNL     1      -6.340   5.732  -4.365  0.00  0.00    +0.000 A 
ATOM     10  C   UNL     1      -7.715   5.791  -4.199  0.00  0.00    +0.000 A 
ATOM     11  C   UNL     1      -7.575   3.791  -2.908  0.00  0.00    +0.000 A 
ATOM     12  C   UNL     1      -8.349   4.792  -3.481  0.00  0.00    +0.000 A 
BRANCH  11  13
ATOM     13  O   UNL     1      -8.088   2.821  -2.085  0.00  0.00    +0.000 OA
BRANCH  13  14
ATOM     14  C   UNL     1      -8.505   1.640  -2.771  0.00  0.00    +0.000 C 
BRANCH  14  16
ATOM     15  F   UNL     1      -6.857   1.006  -4.907  0.00  0.00    +0.000 F 
ATOM     16  C   UNL     1      -7.492   0.528  -2.678  0.00  0.00    +0.000 A 
ATOM     17  C   UNL     1      -6.686   0.277  -3.795  0.00  0.00    +0.000 A 
ATOM     18  C   UNL     1      -7.296  -0.245  -1.529  0.00  0.00    +0.000 A 
ATOM     19  C   UNL     1      -5.702  -0.705  -3.784  0.00  0.00    +0.000 A 
ATOM     20  C   UNL     1      -6.308  -1.234  -1.506  0.00  0.00    +0.000 A 
ATOM     21  C   UNL     1      -5.502  -1.467  -2.627  0.00  0.00    +0.000 A 
BRANCH  21  23
ATOM     22  N   UNL     1      -3.622  -3.258  -2.553  0.00  0.00    +0.000 NA
ATOM     23  C   UNL     1      -4.468  -2.458  -2.587  0.00  0.00    +0.000 C 
ENDBRANCH  21  23
ENDBRANCH  14  16
ENDBRANCH  13  14
ENDBRANCH  11  13
ENDBRANCH   2   8
BRANCH   1  24
ATOM     24  C   UNL     1      -0.122   2.842  -3.639  0.00  0.00    +0.000 C 
BRANCH  24  27
ATOM     25  N   UNL     1      -0.211   0.492  -2.541  0.00  0.00    +0.000 N 
ATOM     26  N   UNL     1       0.714   0.648  -4.540  0.00  0.00    +0.000 NA
ATOM     27  C   UNL     1       0.160   1.348  -3.569  0.00  0.00    +0.000 A 
ATOM     28  C   UNL     1       0.154  -0.796  -2.902  0.00  0.00    +0.000 A 
ATOM     29  C   UNL     1       0.715  -0.650  -4.162  0.00  0.00    +0.000 A 
ATOM     30  C   UNL     1       0.025  -2.058  -2.305  0.00  0.00    +0.000 A 
ATOM     31  C   UNL     1       1.154  -1.761  -4.891  0.00  0.00    +0.000 A 
ATOM     32  C   UNL     1       0.482  -3.174  -3.038  0.00  0.00    +0.000 A 
ATOM     33  C   UNL     1       1.016  -3.029  -4.325  0.00  0.00    +0.000 A 
BRANCH  32  35
ATOM     34  O   UNL     1       1.255  -5.276  -2.245  0.00  0.00    +0.000 OA
ATOM     35  C   UNL     1       0.319  -4.517  -2.422  0.00  0.00    +0.000 C 
BRANCH  35  36
ATOM     36  O   UNL     1      -0.957  -4.836  -2.120  0.00  0.00    +0.000 OA
ATOM     37  H   UNL     1      -1.269  -5.690  -2.469  0.00  0.00    +0.000 HD
ENDBRANCH  35  36
ENDBRANCH  32  35
BRANCH  25  38
ATOM     38  C   UNL     1      -1.021   0.831  -1.378  0.00  0.00    +0.000 C 
BRANCH  38  40
ATOM     39  O   UNL     1      -2.855  -0.375  -0.316  0.00  0.00    +0.000 OA
ATOM     40  C   UNL     1      -2.483   0.417  -1.492  0.00  0.00    +0.000 C 
ATOM     41  C   UNL     1      -3.602   1.423  -1.153  0.00  0.00    +0.000 C 
ATOM     42  C   UNL     1      -3.584   0.762   0.222  0.00  0.00    +0.000 C 
ENDBRANCH  38  40
ENDBRANCH  25  38
ENDBRANCH  24  27
ENDBRANCH   1  24
TORSDOF 11
ENDMDL
MODEL 6
REMARK VINA RESULT:     0.001      3.343      7.023
REMARK INTER + INTRA:          -3.490
REMARK INTER:                   0.000
REMARK INTRA:                  -3.490
REMARK UNBOUND:                -3.493
REMARK  Name = 134611040
REMARK  11 active torsions:
REMARK  status: ('A' for Active; 'I' for Inactive)
REMARK    1  A    between atoms: O_3  and  C_30
REMARK    2  A    between atoms: O_3  and  C_34
REMARK    3  A    between atoms: O_4  and  C_33
REMARK    4  A    between atoms: N_6  and  C_16
REMARK    5  A    between atoms: N_7  and  C_18
REMARK    6  A    between atoms: C_11  and  C_21
REMARK    7  A    between atoms: C_16  and  C_19
REMARK    8  A    between atoms: C_17  and  C_18
REMARK    9  A    between atoms: C_28  and  C_33
REMARK   10  A    between atoms: C_34  and  C_35
REMARK   11  A    between atoms: C_40  and  C_41
REMARK                            x       y       z     vdW  Elec       q    Type
REMARK                         _______ _______ _______ _____ _____    ______ ____
ROOT
ATOM      1  N   UNL     1       0.306   2.226   0.412  0.00  0.00    +0.000 NA
ATOM      2  C   UNL     1       2.235   0.343   1.602  0.00  0.00    +0.000 C 
ATOM      3  C   UNL     1       2.528   1.195   0.363  0.00  0.00    +0.000 C 
ATOM      4  C   UNL     1       0.719   0.202   1.800  0.00  0.00    +0.000 C 
ATOM      5  C   UNL     1       1.754   2.501   0.368  0.00  0.00    +0.000 C 
ATOM      6  C   UNL     1      -0.003   1.559   1.691  0.00  0.00    +0.000 C 
ENDROOT
BRANCH   2   8
ATOM      7  N   UNL     1       2.365  -2.000   0.877  0.00  0.00    +0.000 NA
ATOM      8  C   UNL     1       2.964  -0.993   1.564  0.00  0.00    +0.000 A 
ATOM      9  C   UNL     1       4.155  -1.199   2.264  0.00  0.00    +0.000 A 
ATOM     10  C   UNL     1       4.683  -2.478   2.355  0.00  0.00    +0.000 A 
ATOM     11  C   UNL     1       2.925  -3.230   0.931  0.00  0.00    +0.000 A 
ATOM     12  C   UNL     1       4.045  -3.517   1.700  0.00  0.00    +0.000 A 
BRANCH  11  13
ATOM     13  O   UNL     1       2.287  -4.162   0.153  0.00  0.00    +0.000 OA
BRANCH  13  14
ATOM     14  C   UNL     1       1.236  -4.857   0.825  0.00  0.00    +0.000 C 
BRANCH  14  16
ATOM     15  F   UNL     1      -0.148  -3.227   2.587  0.00  0.00    +0.000 F 
ATOM     16  C   UNL     1      -0.128  -4.314   0.485  0.00  0.00    +0.000 A 
ATOM     17  C   UNL     1      -0.758  -3.486   1.422  0.00  0.00    +0.000 A 
ATOM     18  C   UNL     1      -0.782  -4.570  -0.724  0.00  0.00    +0.000 A 
ATOM     19  C   UNL     1      -2.001  -2.912   1.175  0.00  0.00    +0.000 A 
ATOM     20  C   UNL     1      -2.031  -3.997  -0.984  0.00  0.00    +0.000 A 
ATOM     21  C   UNL     1      -2.645  -3.161  -0.042  0.00  0.00    +0.000 A 
BRANCH  21  23
ATOM     22  N   UNL     1      -4.936  -2.049  -0.551  0.00  0.00    +0.000 NA
ATOM     23  C   UNL     1      -3.909  -2.549  -0.327  0.00  0.00    +0.000 C 
ENDBRANCH  21  23
ENDBRANCH  14  16
ENDBRANCH  13  14
ENDBRANCH  11  13
ENDBRANCH   2   8
BRANCH   1  24
ATOM     24  C   UNL     1      -0.506   3.457   0.230  0.00  0.00    +0.000 C 
BRANCH  24  27
ATOM     25  N   UNL     1      -2.551   2.401  -0.969  0.00  0.00    +0.000 N 
ATOM     26  N   UNL     1      -2.942   3.610   0.837  0.00  0.00    +0.000 NA
ATOM     27  C   UNL     1      -1.991   3.193   0.024  0.00  0.00    +0.000 A 
ATOM     28  C   UNL     1      -3.920   2.349  -0.755  0.00  0.00    +0.000 A 
ATOM     29  C   UNL     1      -4.114   3.107   0.389  0.00  0.00    +0.000 A 
ATOM     30  C   UNL     1      -4.991   1.705  -1.391  0.00  0.00    +0.000 A 
ATOM     31  C   UNL     1      -5.385   3.239   0.962  0.00  0.00    +0.000 A 
ATOM     32  C   UNL     1      -6.273   1.853  -0.819  0.00  0.00    +0.000 A 
ATOM     33  C   UNL     1      -6.461   2.589   0.357  0.00  0.00    +0.000 A 
BRANCH  32  35
ATOM     34  O   UNL     1      -8.406   1.725  -1.855  0.00  0.00    +0.000 OA
ATOM     35  C   UNL     1      -7.405   1.147  -1.473  0.00  0.00    +0.000 C 
BRANCH  35  36
ATOM     36  O   UNL     1      -7.246  -0.190  -1.564  0.00  0.00    +0.000 OA
ATOM     37  H   UNL     1      -6.341  -0.516  -1.411  0.00  0.00    +0.000 HD
ENDBRANCH  35  36
ENDBRANCH  32  35
BRANCH  25  38
ATOM     38  C   UNL     1      -1.832   1.593  -1.946  0.00  0.00    +0.000 C 
BRANCH  38  40
ATOM     39  O   UNL     1      -2.225  -0.683  -2.730  0.00  0.00    +0.000 OA
ATOM     40  C   UNL     1      -1.748   0.113  -1.594  0.00  0.00    +0.000 C 
ATOM     41  C   UNL     1      -0.395  -0.624  -1.661  0.00  0.00    +0.000 C 
ATOM     42  C   UNL     1      -0.854  -1.043  -3.055  0.00  0.00    +0.000 C 
ENDBRANCH  38  40
ENDBRANCH  25  38
ENDBRANCH  24  27
ENDBRANCH   1  24
TORSDOF 11
ENDMDL
MODEL 7
REMARK VINA RESULT:     0.002      2.884      3.717
REMARK INTER + INTRA:          -3.490
REMARK INTER:                   0.000
REMARK INTRA:                  -3.490
REMARK UNBOUND:                -3.493
REMARK  Name = 134611040
REMARK  11 active torsions:
REMARK  status: ('A' for Active; 'I' for Inactive)
REMARK    1  A    between atoms: O_3  and  C_30
REMARK    2  A    between atoms: O_3  and  C_34
REMARK    3  A    between atoms: O_4  and  C_33
REMARK    4  A    between atoms: N_6  and  C_16
REMARK    5  A    between atoms: N_7  and  C_18
REMARK    6  A    between atoms: C_11  and  C_21
REMARK    7  A    between atoms: C_16  and  C_19
REMARK    8  A    between atoms: C_17  and  C_18
REMARK    9  A    between atoms: C_28  and  C_33
REMARK   10  A    between atoms: C_34  and  C_35
REMARK   11  A    between atoms: C_40  and  C_41
REMARK                            x       y       z     vdW  Elec       q    Type
REMARK                         _______ _______ _______ _____ _____    ______ ____
ROOT
ATOM      1  N   UNL     1       1.124  -1.882  -3.920  0.00  0.00    +0.000 NA
ATOM      2  C   UNL     1       2.459   0.645  -4.637  0.00  0.00    +0.000 C 
ATOM      3  C   UNL     1       3.027  -0.366  -3.636  0.00  0.00    +0.000 C 
ATOM      4  C   UNL     1       0.946   0.443  -4.792  0.00  0.00    +0.000 C 
ATOM      5  C   UNL     1       2.595  -1.787  -3.947  0.00  0.00    +0.000 C 
ATOM      6  C   UNL     1       0.583  -1.040  -5.004  0.00  0.00    +0.000 C 
ENDROOT
BRANCH   2   8
ATOM      7  N   UNL     1       2.049   2.723  -3.394  0.00  0.00    +0.000 NA
ATOM      8  C   UNL     1       2.843   2.076  -4.287  0.00  0.00    +0.000 A 
ATOM      9  C   UNL     1       3.914   2.722  -4.909  0.00  0.00    +0.000 A 
ATOM     10  C   UNL     1       4.109   4.079  -4.699  0.00  0.00    +0.000 A 
ATOM     11  C   UNL     1       2.290   4.033  -3.158  0.00  0.00    +0.000 A 
ATOM     12  C   UNL     1       3.270   4.753  -3.830  0.00  0.00    +0.000 A 
BRANCH  11  13
ATOM     13  O   UNL     1       1.482   4.579  -2.194  0.00  0.00    +0.000 OA
BRANCH  13  14
ATOM     14  C   UNL     1       0.252   5.102  -2.697  0.00  0.00    +0.000 C 
BRANCH  14  16
ATOM     15  F   UNL     1      -0.798   3.618  -4.788  0.00  0.00    +0.000 F 
ATOM     16  C   UNL     1      -0.906   4.162  -2.487  0.00  0.00    +0.000 A 
ATOM     17  C   UNL     1      -1.372   3.436  -3.590  0.00  0.00    +0.000 A 
ATOM     18  C   UNL     1      -1.520   3.957  -1.247  0.00  0.00    +0.000 A 
ATOM     19  C   UNL     1      -2.412   2.520  -3.479  0.00  0.00    +0.000 A 
ATOM     20  C   UNL     1      -2.566   3.037  -1.124  0.00  0.00    +0.000 A 
ATOM     21  C   UNL     1      -3.015   2.309  -2.234  0.00  0.00    +0.000 A 
BRANCH  21  23
ATOM     22  N   UNL     1      -4.910   0.551  -1.980  0.00  0.00    +0.000 NA
ATOM     23  C   UNL     1      -4.063   1.343  -2.095  0.00  0.00    +0.000 C 
ENDBRANCH  21  23
ENDBRANCH  14  16
ENDBRANCH  13  14
ENDBRANCH  11  13
ENDBRANCH   2   8
BRANCH   1  24
ATOM     24  C   UNL     1       0.649  -3.285  -4.033  0.00  0.00    +0.000 C 
BRANCH  24  27
ATOM     25  N   UNL     1      -1.498  -3.079  -2.589  0.00  0.00    +0.000 N 
ATOM     26  N   UNL     1      -1.715  -3.909  -4.624  0.00  0.00    +0.000 NA
ATOM     27  C   UNL     1      -0.837  -3.459  -3.749  0.00  0.00    +0.000 A 
ATOM     28  C   UNL     1      -2.851  -3.329  -2.765  0.00  0.00    +0.000 A 
ATOM     29  C   UNL     1      -2.938  -3.833  -4.054  0.00  0.00    +0.000 A 
ATOM     30  C   UNL     1      -3.997  -3.137  -1.980  0.00  0.00    +0.000 A 
ATOM     31  C   UNL     1      -4.177  -4.150  -4.623  0.00  0.00    +0.000 A 
ATOM     32  C   UNL     1      -5.242  -3.472  -2.552  0.00  0.00    +0.000 A 
ATOM     33  C   UNL     1      -5.332  -3.947  -3.867  0.00  0.00    +0.000 A 
BRANCH  32  35
ATOM     34  O   UNL     1      -7.321  -4.090  -1.585  0.00  0.00    +0.000 OA
ATOM     35  C   UNL     1      -6.461  -3.242  -1.734  0.00  0.00    +0.000 C 
BRANCH  35  36
ATOM     36  O   UNL     1      -6.551  -2.000  -1.212  0.00  0.00    +0.000 OA
ATOM     37  H   UNL     1      -6.885  -1.314  -1.818  0.00  0.00    +0.000 HD
ENDBRANCH  35  36
ENDBRANCH  32  35
BRANCH  25  38
ATOM     38  C   UNL     1      -0.927  -2.358  -1.459  0.00  0.00    +0.000 C 
BRANCH  38  40
ATOM     39  O   UNL     1      -1.817  -0.494  -0.162  0.00  0.00    +0.000 OA
ATOM     40  C   UNL     1      -1.229  -0.864  -1.452  0.00  0.00    +0.000 C 
ATOM     41  C   UNL     1      -0.096   0.154  -1.215  0.00  0.00    +0.000 C 
ATOM     42  C   UNL     1      -0.559   0.116   0.238  0.00  0.00    +0.000 C 
ENDBRANCH  38  40
ENDBRANCH  25  38
ENDBRANCH  24  27
ENDBRANCH   1  24
TORSDOF 11
ENDMDL
MODEL 8
REMARK VINA RESULT:     0.002      2.745      7.821
REMARK INTER + INTRA:          -3.490
REMARK INTER:                   0.000
REMARK INTRA:                  -3.490
REMARK UNBOUND:                -3.493
REMARK  Name = 134611040
REMARK  11 active torsions:
REMARK  status: ('A' for Active; 'I' for Inactive)
REMARK    1  A    between atoms: O_3  and  C_30
REMARK    2  A    between atoms: O_3  and  C_34
REMARK    3  A    between atoms: O_4  and  C_33
REMARK    4  A    between atoms: N_6  and  C_16
REMARK    5  A    between atoms: N_7  and  C_18
REMARK    6  A    between atoms: C_11  and  C_21
REMARK    7  A    between atoms: C_16  and  C_19
REMARK    8  A    between atoms: C_17  and  C_18
REMARK    9  A    between atoms: C_28  and  C_33
REMARK   10  A    between atoms: C_34  and  C_35
REMARK   11  A    between atoms: C_40  and  C_41
REMARK                            x       y       z     vdW  Elec       q    Type
REMARK                         _______ _______ _______ _____ _____    ______ ____
ROOT
ATOM      1  N   UNL     1       1.376  -3.178  -0.498  0.00  0.00    +0.000 NA
ATOM      2  C   UNL     1      -1.354  -4.211  -0.894  0.00  0.00    +0.000 C 
ATOM      3  C   UNL     1      -0.332  -4.048  -2.022  0.00  0.00    +0.000 C 
ATOM      4  C   UNL     1      -0.980  -3.312   0.292  0.00  0.00    +0.000 C 
ATOM      5  C   UNL     1       1.097  -4.193  -1.529  0.00  0.00    +0.000 C 
ATOM      6  C   UNL     1       0.509  -3.444   0.666  0.00  0.00    +0.000 C 
ENDROOT
BRANCH   2   8
ATOM      7  N   UNL     1      -3.223  -2.721  -1.459  0.00  0.00    +0.000 NA
ATOM      8  C   UNL     1      -2.782  -4.003  -1.381  0.00  0.00    +0.000 A 
ATOM      9  C   UNL     1      -3.626  -5.080  -1.660  0.00  0.00    +0.000 A 
ATOM     10  C   UNL     1      -4.969  -4.849  -1.917  0.00  0.00    +0.000 A 
ATOM     11  C   UNL     1      -4.524  -2.511  -1.766  0.00  0.00    +0.000 A 
ATOM     12  C   UNL     1      -5.433  -3.546  -1.945  0.00  0.00    +0.000 A 
BRANCH  11  13
ATOM     13  O   UNL     1      -4.856  -1.186  -1.887  0.00  0.00    +0.000 OA
BRANCH  13  14
ATOM     14  C   UNL     1      -5.289  -0.583  -0.668  0.00  0.00    +0.000 C 
BRANCH  14  16
ATOM     15  F   UNL     1      -3.885  -1.548   1.518  0.00  0.00    +0.000 F 
ATOM     16  C   UNL     1      -4.207   0.232  -0.008  0.00  0.00    +0.000 A 
ATOM     17  C   UNL     1      -3.533  -0.330   1.082  0.00  0.00    +0.000 A 
ATOM     18  C   UNL     1      -3.823   1.504  -0.445  0.00  0.00    +0.000 A 
ATOM     19  C   UNL     1      -2.497   0.337   1.727  0.00  0.00    +0.000 A 
ATOM     20  C   UNL     1      -2.781   2.183   0.195  0.00  0.00    +0.000 A 
ATOM     21  C   UNL     1      -2.108   1.604   1.278  0.00  0.00    +0.000 A 
BRANCH  21  23
ATOM     22  N   UNL     1      -0.130   2.847   2.414  0.00  0.00    +0.000 NA
ATOM     23  C   UNL     1      -1.019   2.288   1.908  0.00  0.00    +0.000 C 
ENDBRANCH  21  23
ENDBRANCH  14  16
ENDBRANCH  13  14
ENDBRANCH  11  13
ENDBRANCH   2   8
BRANCH   1  24
ATOM     24  C   UNL     1       2.811  -3.149  -0.111  0.00  0.00    +0.000 C 
BRANCH  24  27
ATOM     25  N   UNL     1       3.017  -0.613   0.399  0.00  0.00    +0.000 N 
ATOM     26  N   UNL     1       3.672  -2.023   1.966  0.00  0.00    +0.000 NA
ATOM     27  C   UNL     1       3.198  -1.947   0.737  0.00  0.00    +0.000 A 
ATOM     28  C   UNL     1       3.419   0.162   1.476  0.00  0.00    +0.000 A 
ATOM     29  C   UNL     1       3.806  -0.762   2.433  0.00  0.00    +0.000 A 
ATOM     30  C   UNL     1       3.450   1.539   1.739  0.00  0.00    +0.000 A 
ATOM     31  C   UNL     1       4.223  -0.353   3.705  0.00  0.00    +0.000 A 
ATOM     32  C   UNL     1       3.885   1.948   3.018  0.00  0.00    +0.000 A 
ATOM     33  C   UNL     1       4.241   1.012   3.996  0.00  0.00    +0.000 A 
BRANCH  32  35
ATOM     34  O   UNL     1       4.877   3.988   3.721  0.00  0.00    +0.000 OA
ATOM     35  C   UNL     1       3.890   3.405   3.311  0.00  0.00    +0.000 C 
BRANCH  35  36
ATOM     36  O   UNL     1       2.698   4.011   3.127  0.00  0.00    +0.000 OA
ATOM     37  H   UNL     1       2.607   4.891   3.535  0.00  0.00    +0.000 HD
ENDBRANCH  35  36
ENDBRANCH  32  35
BRANCH  25  38
ATOM     38  C   UNL     1       2.339  -0.101  -0.786  0.00  0.00    +0.000 C 
BRANCH  38  40
ATOM     39  O   UNL     1       0.742   1.726  -1.030  0.00  0.00    +0.000 OA
ATOM     40  C   UNL     1       0.906   0.355  -0.538  0.00  0.00    +0.000 C 
ATOM     41  C   UNL     1      -0.227  -0.105  -1.479  0.00  0.00    +0.000 C 
ATOM     42  C   UNL     1       0.012   1.227  -2.184  0.00  0.00    +0.000 C 
ENDBRANCH  38  40
ENDBRANCH  25  38
ENDBRANCH  24  27
ENDBRANCH   1  24
TORSDOF 11
ENDMDL
MODEL 9
REMARK VINA RESULT:     0.002      3.983      8.943
REMARK INTER + INTRA:          -3.490
REMARK INTER:                   0.000
REMARK INTRA:                  -3.490
REMARK UNBOUND:                -3.493
REMARK  Name = 134611040
REMARK  11 active torsions:
REMARK  status: ('A' for Active; 'I' for Inactive)
REMARK    1  A    between atoms: O_3  and  C_30
REMARK    2  A    between atoms: O_3  and  C_34
REMARK    3  A    between atoms: O_4  and  C_33
REMARK    4  A    between atoms: N_6  and  C_16
REMARK    5  A    between atoms: N_7  and  C_18
REMARK    6  A    between atoms: C_11  and  C_21
REMARK    7  A    between atoms: C_16  and  C_19
REMARK    8  A    between atoms: C_17  and  C_18
REMARK    9  A    between atoms: C_28  and  C_33
REMARK   10  A    between atoms: C_34  and  C_35
REMARK   11  A    between atoms: C_40  and  C_41
REMARK                            x       y       z     vdW  Elec       q    Type
REMARK                         _______ _______ _______ _____ _____    ______ ____
ROOT
ATOM      1  N   UNL     1      -3.747   3.483  -1.088  0.00  0.00    +0.000 NA
ATOM      2  C   UNL     1      -6.120   1.739  -1.191  0.00  0.00    +0.000 C 
ATOM      3  C   UNL     1      -5.428   2.161   0.108  0.00  0.00    +0.000 C 
ATOM      4  C   UNL     1      -5.155   1.885  -2.376  0.00  0.00    +0.000 C 
ATOM      5  C   UNL     1      -4.756   3.517  -0.013  0.00  0.00    +0.000 C 
ATOM      6  C   UNL     1      -4.439   3.249  -2.370  0.00  0.00    +0.000 C 
ENDROOT
BRANCH   2   8
ATOM      7  N   UNL     1      -5.924  -0.705  -1.337  0.00  0.00    +0.000 NA
ATOM      8  C   UNL     1      -6.739   0.352  -1.086  0.00  0.00    +0.000 A 
ATOM      9  C   UNL     1      -8.099   0.174  -0.819  0.00  0.00    +0.000 A 
ATOM     10  C   UNL     1      -8.655  -1.092  -0.919  0.00  0.00    +0.000 A 
ATOM     11  C   UNL     1      -6.474  -1.940  -1.375  0.00  0.00    +0.000 A 
ATOM     12  C   UNL     1      -7.837  -2.164  -1.227  0.00  0.00    +0.000 A 
BRANCH  11  13
ATOM     13  O   UNL     1      -5.561  -2.946  -1.567  0.00  0.00    +0.000 OA
BRANCH  13  14
ATOM     14  C   UNL     1      -5.301  -3.238  -2.940  0.00  0.00    +0.000 C 
BRANCH  14  16
ATOM     15  F   UNL     1      -5.327  -0.989  -4.560  0.00  0.00    +0.000 F 
ATOM     16  C   UNL     1      -4.022  -2.611  -3.433  0.00  0.00    +0.000 A 
ATOM     17  C   UNL     1      -4.117  -1.468  -4.236  0.00  0.00    +0.000 A 
ATOM     18  C   UNL     1      -2.750  -3.093  -3.109  0.00  0.00    +0.000 A 
ATOM     19  C   UNL     1      -2.988  -0.805  -4.704  0.00  0.00    +0.000 A 
ATOM     20  C   UNL     1      -1.608  -2.433  -3.573  0.00  0.00    +0.000 A 
ATOM     21  C   UNL     1      -1.717  -1.284  -4.366  0.00  0.00    +0.000 A 
BRANCH  21  23
ATOM     22  N   UNL     1       0.414  -0.034  -5.169  0.00  0.00    +0.000 NA
ATOM     23  C   UNL     1      -0.544  -0.592  -4.810  0.00  0.00    +0.000 C 
ENDBRANCH  21  23
ENDBRANCH  14  16
ENDBRANCH  13  14
ENDBRANCH  11  13
ENDBRANCH   2   8
BRANCH   1  24
ATOM     24  C   UNL     1      -2.927   4.721  -1.130  0.00  0.00    +0.000 C 
BRANCH  24  27
ATOM     25  N   UNL     1      -0.697   3.669  -1.939  0.00  0.00    +0.000 N 
ATOM     26  N   UNL     1      -1.491   5.381  -3.086  0.00  0.00    +0.000 NA
ATOM     27  C   UNL     1      -1.703   4.622  -2.028  0.00  0.00    +0.000 A 
ATOM     28  C   UNL     1       0.183   3.873  -2.991  0.00  0.00    +0.000 A 
ATOM     29  C   UNL     1      -0.361   4.942  -3.686  0.00  0.00    +0.000 A 
ATOM     30  C   UNL     1       1.348   3.233  -3.436  0.00  0.00    +0.000 A 
ATOM     31  C   UNL     1       0.224   5.408  -4.869  0.00  0.00    +0.000 A 
ATOM     32  C   UNL     1       1.944   3.716  -4.621  0.00  0.00    +0.000 A 
ATOM     33  C   UNL     1       1.373   4.773  -5.342  0.00  0.00    +0.000 A 
BRANCH  32  35
ATOM     34  O   UNL     1       4.203   3.608  -5.345  0.00  0.00    +0.000 OA
ATOM     35  C   UNL     1       3.162   3.021  -5.113  0.00  0.00    +0.000 C 
BRANCH  35  36
ATOM     36  O   UNL     1       2.999   1.698  -5.322  0.00  0.00    +0.000 OA
ATOM     37  H   UNL     1       2.792   1.441  -6.238  0.00  0.00    +0.000 HD
ENDBRANCH  35  36
ENDBRANCH  32  35
BRANCH  25  38
ATOM     38  C   UNL     1      -0.660   2.527  -1.035  0.00  0.00    +0.000 C 
BRANCH  38  40
ATOM     39  O   UNL     1      -0.026   0.209  -1.458  0.00  0.00    +0.000 OA
ATOM     40  C   UNL     1      -1.077   1.208  -1.676  0.00  0.00    +0.000 C 
ATOM     41  C   UNL     1      -2.086   0.285  -0.964  0.00  0.00    +0.000 C 
ATOM     42  C   UNL     1      -0.844  -0.431  -0.440  0.00  0.00    +0.000 C 
ENDBRANCH  38  40
ENDBRANCH  25  38
ENDBRANCH  24  27
ENDBRANCH   1  24
TORSDOF 11
ENDMDL
MODEL 10
REMARK VINA RESULT:     0.002      3.450      5.180
REMARK INTER + INTRA:          -3.489
REMARK INTER:                   0.000
REMARK INTRA:                  -3.489
REMARK UNBOUND:                -3.493
REMARK  Name = 134611040
REMARK  11 active torsions:
REMARK  status: ('A' for Active; 'I' for Inactive)
REMARK    1  A    between atoms: O_3  and  C_30
REMARK    2  A    between atoms: O_3  and  C_34
REMARK    3  A    between atoms: O_4  and  C_33
REMARK    4  A    between atoms: N_6  and  C_16
REMARK    5  A    between atoms: N_7  and  C_18
REMARK    6  A    between atoms: C_11  and  C_21
REMARK    7  A    between atoms: C_16  and  C_19
REMARK    8  A    between atoms: C_17  and  C_18
REMARK    9  A    between atoms: C_28  and  C_33
REMARK   10  A    between atoms: C_34  and  C_35
REMARK   11  A    between atoms: C_40  and  C_41
REMARK                            x       y       z     vdW  Elec       q    Type
REMARK                         _______ _______ _______ _____ _____    ______ ____
ROOT
ATOM      1  N   UNL     1       0.325  -1.498   0.131  0.00  0.00    +0.000 NA
ATOM      2  C   UNL     1       2.432  -0.710  -1.773  0.00  0.00    +0.000 C 
ATOM      3  C   UNL     1       2.685  -0.990  -0.289  0.00  0.00    +0.000 C 
ATOM      4  C   UNL     1       0.950  -0.380  -2.004  0.00  0.00    +0.000 C 
ATOM      5  C   UNL     1       1.704  -1.999   0.281  0.00  0.00    +0.000 C 
ATOM      6  C   UNL     1       0.021  -1.395  -1.309  0.00  0.00    +0.000 C 
ENDROOT
BRANCH   2   8
ATOM      7  N   UNL     1       3.011   1.646  -2.159  0.00  0.00    +0.000 NA
ATOM      8  C   UNL     1       3.377   0.348  -2.325  0.00  0.00    +0.000 A 
ATOM      9  C   UNL     1       4.528   0.004  -3.038  0.00  0.00    +0.000 A 
ATOM     10  C   UNL     1       5.255   0.993  -3.683  0.00  0.00    +0.000 A 
ATOM     11  C   UNL     1       3.765   2.602  -2.748  0.00  0.00    +0.000 A 
ATOM     12  C   UNL     1       4.855   2.311  -3.558  0.00  0.00    +0.000 A 
BRANCH  11  13
ATOM     13  O   UNL     1       3.355   3.880  -2.466  0.00  0.00    +0.000 OA
BRANCH  13  14
ATOM     14  C   UNL     1       2.374   4.388  -3.371  0.00  0.00    +0.000 C 
BRANCH  14  16
ATOM     15  F   UNL     1       0.593   2.450  -4.238  0.00  0.00    +0.000 F 
ATOM     16  C   UNL     1       0.975   4.303  -2.817  0.00  0.00    +0.000 A 
ATOM     17  C   UNL     1       0.139   3.288  -3.295  0.00  0.00    +0.000 A 
ATOM     18  C   UNL     1       0.481   5.166  -1.833  0.00  0.00    +0.000 A 
ATOM     19  C   UNL     1      -1.154   3.115  -2.812  0.00  0.00    +0.000 A 
ATOM     20  C   UNL     1      -0.817   5.000  -1.340  0.00  0.00    +0.000 A 
ATOM     21  C   UNL     1      -1.639   3.972  -1.819  0.00  0.00    +0.000 A 
BRANCH  21  23
ATOM     22  N   UNL     1      -4.026   3.639  -0.850  0.00  0.00    +0.000 NA
ATOM     23  C   UNL     1      -2.955   3.785  -1.285  0.00  0.00    +0.000 C 
ENDBRANCH  21  23
ENDBRANCH  14  16
ENDBRANCH  13  14
ENDBRANCH  11  13
ENDBRANCH   2   8
BRANCH   1  24
ATOM     24  C   UNL     1      -0.664  -2.354   0.836  0.00  0.00    +0.000 C 
BRANCH  24  27
ATOM     25  N   UNL     1      -2.369  -0.507   1.485  0.00  0.00    +0.000 N 
ATOM     26  N   UNL     1      -3.139  -2.270   0.401  0.00  0.00    +0.000 NA
ATOM     27  C   UNL     1      -2.054  -1.740   0.931  0.00  0.00    +0.000 A 
ATOM     28  C   UNL     1      -3.724  -0.284   1.295  0.00  0.00    +0.000 A 
ATOM     29  C   UNL     1      -4.158  -1.404   0.603  0.00  0.00    +0.000 A 
ATOM     30  C   UNL     1      -4.600   0.767   1.602  0.00  0.00    +0.000 A 
ATOM     31  C   UNL     1      -5.484  -1.516   0.169  0.00  0.00    +0.000 A 
ATOM     32  C   UNL     1      -5.940   0.643   1.176  0.00  0.00    +0.000 A 
ATOM     33  C   UNL     1      -6.369  -0.473   0.446  0.00  0.00    +0.000 A 
BRANCH  32  35
ATOM     34  O   UNL     1      -7.806   1.658   2.237  0.00  0.00    +0.000 OA
ATOM     35  C   UNL     1      -6.864   1.768   1.474  0.00  0.00    +0.000 C 
BRANCH  35  36
ATOM     36  O   UNL     1      -6.595   2.901   0.791  0.00  0.00    +0.000 OA
ATOM     37  H   UNL     1      -5.697   2.964   0.420  0.00  0.00    +0.000 HD
ENDBRANCH  35  36
ENDBRANCH  32  35
BRANCH  25  38
ATOM     38  C   UNL     1      -1.428   0.481   1.996  0.00  0.00    +0.000 C 
BRANCH  38  40
ATOM     39  O   UNL     1      -1.385   2.901   1.693  0.00  0.00    +0.000 OA
ATOM     40  C   UNL     1      -1.130   1.620   1.028  0.00  0.00    +0.000 C 
ATOM     41  C   UNL     1       0.327   2.058   0.771  0.00  0.00    +0.000 C 
ATOM     42  C   UNL     1       0.046   3.115   1.834  0.00  0.00    +0.000 C 
ENDBRANCH  38  40
ENDBRANCH  25  38
ENDBRANCH  24  27
ENDBRANCH   1  24
TORSDOF 11
ENDMDL
MODEL 11
REMARK VINA RESULT:     0.002      4.600      8.287
REMARK INTER + INTRA:          -3.489
REMARK INTER:                   0.000
REMARK INTRA:                  -3.489
REMARK UNBOUND:                -3.493
REMARK  Name = 134611040
REMARK  11 active torsions:
REMARK  status: ('A' for Active; 'I' for Inactive)
REMARK    1  A    between atoms: O_3  and  C_30
REMARK    2  A    between atoms: O_3  and  C_34
REMARK    3  A    between atoms: O_4  and  C_33
REMARK    4  A    between atoms: N_6  and  C_16
REMARK    5  A    between atoms: N_7  and  C_18
REMARK    6  A    between atoms: C_11  and  C_21
REMARK    7  A    between atoms: C_16  and  C_19
REMARK    8  A    between atoms: C_17  and  C_18
REMARK    9  A    between atoms: C_28  and  C_33
REMARK   10  A    between atoms: C_34  and  C_35
REMARK   11  A    between atoms: C_40  and  C_41
REMARK                            x       y       z     vdW  Elec       q    Type
REMARK                         _______ _______ _______ _____ _____    ______ ____
ROOT
ATOM      1  N   UNL     1      -1.292  -2.396  -2.962  0.00  0.00    +0.000 NA
ATOM      2  C   UNL     1      -4.201  -2.815  -3.172  0.00  0.00    +0.000 C 
ATOM      3  C   UNL     1      -3.518  -1.460  -3.376  0.00  0.00    +0.000 C 
ATOM      4  C   UNL     1      -3.293  -3.748  -2.358  0.00  0.00    +0.000 C 
ATOM      5  C   UNL     1      -2.102  -1.604  -3.906  0.00  0.00    +0.000 C 
ATOM      6  C   UNL     1      -1.850  -3.761  -2.899  0.00  0.00    +0.000 C 
ENDROOT
BRANCH   2   8
ATOM      7  N   UNL     1      -5.684  -2.558  -1.231  0.00  0.00    +0.000 NA
ATOM      8  C   UNL     1      -5.598  -2.669  -2.582  0.00  0.00    +0.000 A 
ATOM      9  C   UNL     1      -6.741  -2.723  -3.382  0.00  0.00    +0.000 A 
ATOM     10  C   UNL     1      -7.992  -2.776  -2.785  0.00  0.00    +0.000 A 
ATOM     11  C   UNL     1      -6.915  -2.554  -0.669  0.00  0.00    +0.000 A 
ATOM     12  C   UNL     1      -8.082  -2.716  -1.406  0.00  0.00    +0.000 A 
BRANCH  11  13
ATOM     13  O   UNL     1      -6.902  -2.370   0.690  0.00  0.00    +0.000 OA
BRANCH  13  14
ATOM     14  C   UNL     1      -6.806  -3.583   1.438  0.00  0.00    +0.000 C 
BRANCH  14  16
ATOM     15  F   UNL     1      -5.186  -5.470   0.215  0.00  0.00    +0.000 F 
ATOM     16  C   UNL     1      -5.406  -3.852   1.928  0.00  0.00    +0.000 A 
ATOM     17  C   UNL     1      -4.645  -4.810   1.249  0.00  0.00    +0.000 A 
ATOM     18  C   UNL     1      -4.821  -3.177   3.004  0.00  0.00    +0.000 A 
ATOM     19  C   UNL     1      -3.333  -5.095   1.611  0.00  0.00    +0.000 A 
ATOM     20  C   UNL     1      -3.502  -3.454   3.375  0.00  0.00    +0.000 A 
ATOM     21  C   UNL     1      -2.748  -4.408   2.680  0.00  0.00    +0.000 A 
BRANCH  21  23
ATOM     22  N   UNL     1      -0.277  -4.864   3.338  0.00  0.00    +0.000 NA
ATOM     23  C   UNL     1      -1.385  -4.663   3.042  0.00  0.00    +0.000 C 
ENDBRANCH  21  23
ENDBRANCH  14  16
ENDBRANCH  13  14
ENDBRANCH  11  13
ENDBRANCH   2   8
BRANCH   1  24
ATOM     24  C   UNL     1       0.147  -2.414  -3.333  0.00  0.00    +0.000 C 
BRANCH  24  27
ATOM     25  N   UNL     1       1.159  -2.563  -0.948  0.00  0.00    +0.000 N 
ATOM     26  N   UNL     1       1.794  -4.080  -2.421  0.00  0.00    +0.000 NA
ATOM     27  C   UNL     1       1.054  -3.001  -2.261  0.00  0.00    +0.000 A 
ATOM     28  C   UNL     1       2.024  -3.416  -0.279  0.00  0.00    +0.000 A 
ATOM     29  C   UNL     1       2.383  -4.353  -1.235  0.00  0.00    +0.000 A 
ATOM     30  C   UNL     1       2.494  -3.504   1.039  0.00  0.00    +0.000 A 
ATOM     31  C   UNL     1       3.214  -5.433  -0.912  0.00  0.00    +0.000 A 
ATOM     32  C   UNL     1       3.344  -4.585   1.356  0.00  0.00    +0.000 A 
ATOM     33  C   UNL     1       3.677  -5.551   0.399  0.00  0.00    +0.000 A 
BRANCH  32  35
ATOM     34  O   UNL     1       4.998  -4.818   3.045  0.00  0.00    +0.000 OA
ATOM     35  C   UNL     1       3.820  -4.698   2.759  0.00  0.00    +0.000 C 
BRANCH  35  36
ATOM     36  O   UNL     1       2.833  -4.703   3.681  0.00  0.00    +0.000 OA
ATOM     37  H   UNL     1       2.940  -5.345   4.405  0.00  0.00    +0.000 HD
ENDBRANCH  35  36
ENDBRANCH  32  35
BRANCH  25  38
ATOM     38  C   UNL     1       0.358  -1.525  -0.311  0.00  0.00    +0.000 C 
BRANCH  38  40
ATOM     39  O   UNL     1      -0.698  -1.458   1.886  0.00  0.00    +0.000 OA
ATOM     40  C   UNL     1      -0.783  -2.054   0.550  0.00  0.00    +0.000 C 
ATOM     41  C   UNL     1      -2.203  -1.475   0.394  0.00  0.00    +0.000 C 
ATOM     42  C   UNL     1      -1.813  -0.581   1.567  0.00  0.00    +0.000 C 
ENDBRANCH  38  40
ENDBRANCH  25  38
ENDBRANCH  24  27
ENDBRANCH   1  24
TORSDOF 11
ENDMDL
MODEL 12
REMARK VINA RESULT:     0.002      3.726      7.023
REMARK INTER + INTRA:          -3.489
REMARK INTER:                   0.000
REMARK INTRA:                  -3.489
REMARK UNBOUND:                -3.493
REMARK  Name = 134611040
REMARK  11 active torsions:
REMARK  status: ('A' for Active; 'I' for Inactive)
REMARK    1  A    between atoms: O_3  and  C_30
REMARK    2  A    between atoms: O_3  and  C_34
REMARK    3  A    between atoms: O_4  and  C_33
REMARK    4  A    between atoms: N_6  and  C_16
REMARK    5  A    between atoms: N_7  and  C_18
REMARK    6  A    between atoms: C_11  and  C_21
REMARK    7  A    between atoms: C_16  and  C_19
REMARK    8  A    between atoms: C_17  and  C_18
REMARK    9  A    between atoms: C_28  and  C_33
REMARK   10  A    between atoms: C_34  and  C_35
REMARK   11  A    between atoms: C_40  and  C_41
REMARK                            x       y       z     vdW  Elec       q    Type
REMARK                         _______ _______ _______ _____ _____    ______ ____
ROOT
ATOM      1  N   UNL     1      -1.934   4.051  -0.243  0.00  0.00    +0.000 NA
ATOM      2  C   UNL     1       0.993   4.314  -0.034  0.00  0.00    +0.000 C 
ATOM      3  C   UNL     1       0.243   4.167  -1.361  0.00  0.00    +0.000 C 
ATOM      4  C   UNL     1       0.131   3.790   1.122  0.00  0.00    +0.000 C 
ATOM      5  C   UNL     1      -1.162   4.740  -1.294  0.00  0.00    +0.000 C 
ATOM      6  C   UNL     1      -1.308   4.340   1.061  0.00  0.00    +0.000 C 
ENDROOT
BRANCH   2   8
ATOM      7  N   UNL     1       2.451   2.345   0.135  0.00  0.00    +0.000 NA
ATOM      8  C   UNL     1       2.378   3.683  -0.087  0.00  0.00    +0.000 A 
ATOM      9  C   UNL     1       3.528   4.453  -0.276  0.00  0.00    +0.000 A 
ATOM     10  C   UNL     1       4.776   3.866  -0.129  0.00  0.00    +0.000 A 
ATOM     11  C   UNL     1       3.677   1.779   0.220  0.00  0.00    +0.000 A 
ATOM     12  C   UNL     1       4.854   2.513   0.149  0.00  0.00    +0.000 A 
BRANCH  11  13
ATOM     13  O   UNL     1       3.647   0.417   0.376  0.00  0.00    +0.000 OA
BRANCH  13  14
ATOM     14  C   UNL     1       3.617  -0.010   1.739  0.00  0.00    +0.000 C 
BRANCH  14  16
ATOM     15  F   UNL     1       2.089   1.683   3.313  0.00  0.00    +0.000 F 
ATOM     16  C   UNL     1       2.235  -0.398   2.195  0.00  0.00    +0.000 A 
ATOM     17  C   UNL     1       1.519   0.517   2.976  0.00  0.00    +0.000 A 
ATOM     18  C   UNL     1       1.620  -1.608   1.855  0.00  0.00    +0.000 A 
ATOM     19  C   UNL     1       0.223   0.256   3.409  0.00  0.00    +0.000 A 
ATOM     20  C   UNL     1       0.317  -1.880   2.284  0.00  0.00    +0.000 A 
ATOM     21  C   UNL     1      -0.391  -0.950   3.056  0.00  0.00    +0.000 A 
BRANCH  21  23
ATOM     22  N   UNL     1      -2.836  -1.433   3.789  0.00  0.00    +0.000 NA
ATOM     23  C   UNL     1      -1.738  -1.219   3.463  0.00  0.00    +0.000 C 
ENDBRANCH  21  23
ENDBRANCH  14  16
ENDBRANCH  13  14
ENDBRANCH  11  13
ENDBRANCH   2   8
BRANCH   1  24
ATOM     24  C   UNL     1      -3.369   4.438  -0.255  0.00  0.00    +0.000 C 
BRANCH  24  27
ATOM     25  N   UNL     1      -4.380   2.186   0.547  0.00  0.00    +0.000 N 
ATOM     26  N   UNL     1      -4.939   4.009   1.661  0.00  0.00    +0.000 NA
ATOM     27  C   UNL     1      -4.251   3.566   0.627  0.00  0.00    +0.000 A 
ATOM     28  C   UNL     1      -5.207   1.772   1.580  0.00  0.00    +0.000 A 
ATOM     29  C   UNL     1      -5.518   2.941   2.256  0.00  0.00    +0.000 A 
ATOM     30  C   UNL     1      -5.677   0.527   2.024  0.00  0.00    +0.000 A 
ATOM     31  C   UNL     1      -6.299   2.919   3.417  0.00  0.00    +0.000 A 
ATOM     32  C   UNL     1      -6.476   0.511   3.187  0.00  0.00    +0.000 A 
ATOM     33  C   UNL     1      -6.760   1.689   3.889  0.00  0.00    +0.000 A 
BRANCH  32  35
ATOM     34  O   UNL     1      -8.124  -1.039   3.910  0.00  0.00    +0.000 OA
ATOM     35  C   UNL     1      -6.951  -0.809   3.678  0.00  0.00    +0.000 C 
BRANCH  35  36
ATOM     36  O   UNL     1      -5.967  -1.709   3.887  0.00  0.00    +0.000 OA
ATOM     37  H   UNL     1      -5.199  -1.636   3.293  0.00  0.00    +0.000 HD
ENDBRANCH  35  36
ENDBRANCH  32  35
BRANCH  25  38
ATOM     38  C   UNL     1      -3.632   1.293  -0.328  0.00  0.00    +0.000 C 
BRANCH  38  40
ATOM     39  O   UNL     1      -2.583  -0.864   0.116  0.00  0.00    +0.000 OA
ATOM     40  C   UNL     1      -2.471   0.578   0.353  0.00  0.00    +0.000 C 
ATOM     41  C   UNL     1      -1.076   0.566  -0.303  0.00  0.00    +0.000 C 
ATOM     42  C   UNL     1      -1.506  -0.789  -0.858  0.00  0.00    +0.000 C 
ENDBRANCH  38  40
ENDBRANCH  25  38
ENDBRANCH  24  27
ENDBRANCH   1  24
TORSDOF 11
ENDMDL
MODEL 13
REMARK VINA RESULT:     0.002      3.019      5.751
REMARK INTER + INTRA:          -3.489
REMARK INTER:                   0.000
REMARK INTRA:                  -3.489
REMARK UNBOUND:                -3.493
REMARK  Name = 134611040
REMARK  11 active torsions:
REMARK  status: ('A' for Active; 'I' for Inactive)
REMARK    1  A    between atoms: O_3  and  C_30
REMARK    2  A    between atoms: O_3  and  C_34
REMARK    3  A    between atoms: O_4  and  C_33
REMARK    4  A    between atoms: N_6  and  C_16
REMARK    5  A    between atoms: N_7  and  C_18
REMARK    6  A    between atoms: C_11  and  C_21
REMARK    7  A    between atoms: C_16  and  C_19
REMARK    8  A    between atoms: C_17  and  C_18
REMARK    9  A    between atoms: C_28  and  C_33
REMARK   10  A    between atoms: C_34  and  C_35
REMARK   11  A    between atoms: C_40  and  C_41
REMARK                            x       y       z     vdW  Elec       q    Type
REMARK                         _______ _______ _______ _____ _____    ______ ____
ROOT
ATOM      1  N   UNL     1      -2.048   2.473  -0.573  0.00  0.00    +0.000 NA
ATOM      2  C   UNL     1       0.435   3.967  -0.045  0.00  0.00    +0.000 C 
ATOM      3  C   UNL     1      -0.157   3.765  -1.442  0.00  0.00    +0.000 C 
ATOM      4  C   UNL     1      -0.100   2.897   0.916  0.00  0.00    +0.000 C 
ATOM      5  C   UNL     1      -1.669   3.625  -1.411  0.00  0.00    +0.000 C 
ATOM      6  C   UNL     1      -1.631   2.748   0.815  0.00  0.00    +0.000 C 
ENDROOT
BRANCH   2   8
ATOM      7  N   UNL     1       2.630   2.866  -0.099  0.00  0.00    +0.000 NA
ATOM      8  C   UNL     1       1.956   4.045  -0.074  0.00  0.00    +0.000 A 
ATOM      9  C   UNL     1       2.630   5.266   0.001  0.00  0.00    +0.000 A 
ATOM     10  C   UNL     1       4.007   5.278   0.162  0.00  0.00    +0.000 A 
ATOM     11  C   UNL     1       3.978   2.899   0.002  0.00  0.00    +0.000 A 
ATOM     12  C   UNL     1       4.692   4.076   0.189  0.00  0.00    +0.000 A 
BRANCH  11  13
ATOM     13  O   UNL     1       4.572   1.667  -0.102  0.00  0.00    +0.000 OA
BRANCH  13  14
ATOM     14  C   UNL     1       4.732   0.994   1.147  0.00  0.00    +0.000 C 
BRANCH  14  16
ATOM     15  F   UNL     1       2.603   1.461   2.859  0.00  0.00    +0.000 F 
ATOM     16  C   UNL     1       3.670  -0.050   1.383  0.00  0.00    +0.000 A 
ATOM     17  C   UNL     1       2.619   0.266   2.252  0.00  0.00    +0.000 A 
ATOM     18  C   UNL     1       3.666  -1.302   0.760  0.00  0.00    +0.000 A 
ATOM     19  C   UNL     1       1.579  -0.623   2.498  0.00  0.00    +0.000 A 
ATOM     20  C   UNL     1       2.625  -2.204   1.000  0.00  0.00    +0.000 A 
ATOM     21  C   UNL     1       1.573  -1.870   1.863  0.00  0.00    +0.000 A 
BRANCH  21  23
ATOM     22  N   UNL     1      -0.393  -3.523   2.246  0.00  0.00    +0.000 NA
ATOM     23  C   UNL     1       0.490  -2.783   2.078  0.00  0.00    +0.000 C 
ENDBRANCH  21  23
ENDBRANCH  14  16
ENDBRANCH  13  14
ENDBRANCH  11  13
ENDBRANCH   2   8
BRANCH   1  24
ATOM     24  C   UNL     1      -3.502   2.173  -0.655  0.00  0.00    +0.000 C 
BRANCH  24  27
ATOM     25  N   UNL     1      -3.382  -0.407  -0.398  0.00  0.00    +0.000 N 
ATOM     26  N   UNL     1      -4.703   0.694   0.987  0.00  0.00    +0.000 NA
ATOM     27  C   UNL     1      -3.891   0.835  -0.043  0.00  0.00    +0.000 A 
ATOM     28  C   UNL     1      -3.929  -1.355   0.454  0.00  0.00    +0.000 A 
ATOM     29  C   UNL     1      -4.734  -0.619   1.308  0.00  0.00    +0.000 A 
ATOM     30  C   UNL     1      -3.783  -2.741   0.605  0.00  0.00    +0.000 A 
ATOM     31  C   UNL     1      -5.417  -1.232   2.365  0.00  0.00    +0.000 A 
ATOM     32  C   UNL     1      -4.485  -3.358   1.662  0.00  0.00    +0.000 A 
ATOM     33  C   UNL     1      -5.271  -2.608   2.547  0.00  0.00    +0.000 A 
BRANCH  32  35
ATOM     34  O   UNL     1      -5.247  -5.600   1.849  0.00  0.00    +0.000 OA
ATOM     35  C   UNL     1      -4.310  -4.822   1.844  0.00  0.00    +0.000 C 
BRANCH  35  36
ATOM     36  O   UNL     1      -3.032  -5.206   2.048  0.00  0.00    +0.000 OA
ATOM     37  H   UNL     1      -2.914  -5.986   2.619  0.00  0.00    +0.000 HD
ENDBRANCH  35  36
ENDBRANCH  32  35
BRANCH  25  38
ATOM     38  C   UNL     1      -2.312  -0.667  -1.353  0.00  0.00    +0.000 C 
BRANCH  38  40
ATOM     39  O   UNL     1      -0.392  -2.166  -1.234  0.00  0.00    +0.000 OA
ATOM     40  C   UNL     1      -0.950  -0.914  -0.714  0.00  0.00    +0.000 C 
ATOM     41  C   UNL     1       0.294  -0.161  -1.227  0.00  0.00    +0.000 C 
ATOM     42  C   UNL     1       0.528  -1.412  -2.069  0.00  0.00    +0.000 C 
ENDBRANCH  38  40
ENDBRANCH  25  38
ENDBRANCH  24  27
ENDBRANCH   1  24
TORSDOF 11
ENDMDL
MODEL 14
REMARK VINA RESULT:     0.002      4.165      8.038
REMARK INTER + INTRA:          -3.489
REMARK INTER:                   0.000
REMARK INTRA:                  -3.489
REMARK UNBOUND:                -3.493
REMARK  Name = 134611040
REMARK  11 active torsions:
REMARK  status: ('A' for Active; 'I' for Inactive)
REMARK    1  A    between atoms: O_3  and  C_30
REMARK    2  A    between atoms: O_3  and  C_34
REMARK    3  A    between atoms: O_4  and  C_33
REMARK    4  A    between atoms: N_6  and  C_16
REMARK    5  A    between atoms: N_7  and  C_18
REMARK    6  A    between atoms: C_11  and  C_21
REMARK    7  A    between atoms: C_16  and  C_19
REMARK    8  A    between atoms: C_17  and  C_18
REMARK    9  A    between atoms: C_28  and  C_33
REMARK   10  A    between atoms: C_34  and  C_35
REMARK   11  A    between atoms: C_40  and  C_41
REMARK                            x       y       z     vdW  Elec       q    Type
REMARK                         _______ _______ _______ _____ _____    ______ ____
ROOT
ATOM      1  N   UNL     1      -2.141   3.616  -2.229  0.00  0.00    +0.000 NA
ATOM      2  C   UNL     1      -4.959   3.023  -2.853  0.00  0.00    +0.000 C 
ATOM      3  C   UNL     1      -4.465   4.382  -2.350  0.00  0.00    +0.000 C 
ATOM      4  C   UNL     1      -3.949   1.926  -2.488  0.00  0.00    +0.000 C 
ATOM      5  C   UNL     1      -3.031   4.662  -2.765  0.00  0.00    +0.000 C 
ATOM      6  C   UNL     1      -2.507   2.329  -2.850  0.00  0.00    +0.000 C 
ENDROOT
BRANCH   2   8
ATOM      7  N   UNL     1      -6.506   2.158  -1.152  0.00  0.00    +0.000 NA
ATOM      8  C   UNL     1      -6.375   2.719  -2.382  0.00  0.00    +0.000 A 
ATOM      9  C   UNL     1      -7.483   2.934  -3.205  0.00  0.00    +0.000 A 
ATOM     10  C   UNL     1      -8.729   2.469  -2.810  0.00  0.00    +0.000 A 
ATOM     11  C   UNL     1      -7.738   1.762  -0.760  0.00  0.00    +0.000 A 
ATOM     12  C   UNL     1      -8.856   1.850  -1.580  0.00  0.00    +0.000 A 
BRANCH  11  13
ATOM     13  O   UNL     1      -7.780   1.271   0.520  0.00  0.00    +0.000 OA
BRANCH  13  14
ATOM     14  C   UNL     1      -7.523  -0.131   0.613  0.00  0.00    +0.000 C 
BRANCH  14  16
ATOM     15  F   UNL     1      -5.646  -1.018  -1.223  0.00  0.00    +0.000 F 
ATOM     16  C   UNL     1      -6.106  -0.435   1.024  0.00  0.00    +0.000 A 
ATOM     17  C   UNL     1      -5.213  -0.865   0.037  0.00  0.00    +0.000 A 
ATOM     18  C   UNL     1      -5.631  -0.282   2.331  0.00  0.00    +0.000 A 
ATOM     19  C   UNL     1      -3.878  -1.133   0.322  0.00  0.00    +0.000 A 
ATOM     20  C   UNL     1      -4.291  -0.547   2.629  0.00  0.00    +0.000 A 
ATOM     21  C   UNL     1      -3.405  -0.967   1.628  0.00  0.00    +0.000 A 
BRANCH  21  23
ATOM     22  N   UNL     1      -0.904  -1.392   2.183  0.00  0.00    +0.000 NA
ATOM     23  C   UNL     1      -2.025  -1.203   1.930  0.00  0.00    +0.000 C 
ENDBRANCH  21  23
ENDBRANCH  14  16
ENDBRANCH  13  14
ENDBRANCH  11  13
ENDBRANCH   2   8
BRANCH   1  24
ATOM     24  C   UNL     1      -0.706   3.935  -2.443  0.00  0.00    +0.000 C 
BRANCH  24  27
ATOM     25  N   UNL     1       0.265   2.796  -0.322  0.00  0.00    +0.000 N 
ATOM     26  N   UNL     1       1.133   2.229  -2.271  0.00  0.00    +0.000 NA
ATOM     27  C   UNL     1       0.250   3.018  -1.692  0.00  0.00    +0.000 A 
ATOM     28  C   UNL     1       1.224   1.831  -0.054  0.00  0.00    +0.000 A 
ATOM     29  C   UNL     1       1.728   1.498  -1.301  0.00  0.00    +0.000 A 
ATOM     30  C   UNL     1       1.673   1.188   1.108  0.00  0.00    +0.000 A 
ATOM     31  C   UNL     1       2.691   0.493  -1.446  0.00  0.00    +0.000 A 
ATOM     32  C   UNL     1       2.655   0.185   0.959  0.00  0.00    +0.000 A 
ATOM     33  C   UNL     1       3.137  -0.175  -0.305  0.00  0.00    +0.000 A 
BRANCH  32  35
ATOM     34  O   UNL     1       4.289  -0.658   2.463  0.00  0.00    +0.000 OA
ATOM     35  C   UNL     1       3.111  -0.520   2.185  0.00  0.00    +0.000 C 
BRANCH  35  36
ATOM     36  O   UNL     1       2.112  -1.031   2.935  0.00  0.00    +0.000 OA
ATOM     37  H   UNL     1       1.252  -1.114   2.486  0.00  0.00    +0.000 HD
ENDBRANCH  35  36
ENDBRANCH  32  35
BRANCH  25  38
ATOM     38  C   UNL     1      -0.683   3.319   0.654  0.00  0.00    +0.000 C 
BRANCH  38  40
ATOM     39  O   UNL     1      -1.791   2.224   2.531  0.00  0.00    +0.000 OA
ATOM     40  C   UNL     1      -1.764   2.328   1.069  0.00  0.00    +0.000 C 
ATOM     41  C   UNL     1      -3.245   2.758   1.084  0.00  0.00    +0.000 C 
ATOM     42  C   UNL     1      -3.004   3.025   2.567  0.00  0.00    +0.000 C 
ENDBRANCH  38  40
ENDBRANCH  25  38
ENDBRANCH  24  27
ENDBRANCH   1  24
TORSDOF 11
ENDMDL
MODEL 15
REMARK VINA RESULT:     0.003      2.661      5.697
REMARK INTER + INTRA:          -3.488
REMARK INTER:                   0.000
REMARK INTRA:                  -3.488
REMARK UNBOUND:                -3.493
REMARK  Name = 134611040
REMARK  11 active torsions:
REMARK  status: ('A' for Active; 'I' for Inactive)
REMARK    1  A    between atoms: O_3  and  C_30
REMARK    2  A    between atoms: O_3  and  C_34
REMARK    3  A    between atoms: O_4  and  C_33
REMARK    4  A    between atoms: N_6  and  C_16
REMARK    5  A    between atoms: N_7  and  C_18
REMARK    6  A    between atoms: C_11  and  C_21
REMARK    7  A    between atoms: C_16  and  C_19
REMARK    8  A    between atoms: C_17  and  C_18
REMARK    9  A    between atoms: C_28  and  C_33
REMARK   10  A    between atoms: C_34  and  C_35
REMARK   11  A    between atoms: C_40  and  C_41
REMARK                            x       y       z     vdW  Elec       q    Type
REMARK                         _______ _______ _______ _____ _____    ______ ____
ROOT
ATOM      1  N   UNL     1      -2.228   2.976  -0.547  0.00  0.00    +0.000 NA
ATOM      2  C   UNL     1       0.499   3.323   0.513  0.00  0.00    +0.000 C 
ATOM      3  C   UNL     1      -0.176   4.310  -0.444  0.00  0.00    +0.000 C 
ATOM      4  C   UNL     1      -0.177   1.948   0.418  0.00  0.00    +0.000 C 
ATOM      5  C   UNL     1      -1.686   4.322  -0.286  0.00  0.00    +0.000 C 
ATOM      6  C   UNL     1      -1.713   2.057   0.486  0.00  0.00    +0.000 C 
ENDROOT
BRANCH   2   8
ATOM      7  N   UNL     1       2.465   2.433  -0.660  0.00  0.00    +0.000 NA
ATOM      8  C   UNL     1       2.007   3.268   0.309  0.00  0.00    +0.000 A 
ATOM      9  C   UNL     1       2.885   3.982   1.128  0.00  0.00    +0.000 A 
ATOM     10  C   UNL     1       4.249   3.757   1.029  0.00  0.00    +0.000 A 
ATOM     11  C   UNL     1       3.802   2.268  -0.780  0.00  0.00    +0.000 A 
ATOM     12  C   UNL     1       4.716   2.867   0.078  0.00  0.00    +0.000 A 
BRANCH  11  13
ATOM     13  O   UNL     1       4.168   1.461  -1.827  0.00  0.00    +0.000 OA
BRANCH  13  14
ATOM     14  C   UNL     1       4.232   0.074  -1.495  0.00  0.00    +0.000 C 
BRANCH  14  16
ATOM     15  F   UNL     1       2.287  -0.700   0.321  0.00  0.00    +0.000 F 
ATOM     16  C   UNL     1       3.005  -0.684  -1.934  0.00  0.00    +0.000 A 
ATOM     17  C   UNL     1       2.061  -1.027  -0.959  0.00  0.00    +0.000 A 
ATOM     18  C   UNL     1       2.748  -1.035  -3.263  0.00  0.00    +0.000 A 
ATOM     19  C   UNL     1       0.884  -1.694  -1.282  0.00  0.00    +0.000 A 
ATOM     20  C   UNL     1       1.567  -1.704  -3.599  0.00  0.00    +0.000 A 
ATOM     21  C   UNL     1       0.626  -2.032  -2.615  0.00  0.00    +0.000 A 
BRANCH  21  23
ATOM     22  N   UNL     1      -1.593  -3.216  -3.263  0.00  0.00    +0.000 NA
ATOM     23  C   UNL     1      -0.598  -2.686  -2.969  0.00  0.00    +0.000 C 
ENDBRANCH  21  23
ENDBRANCH  14  16
ENDBRANCH  13  14
ENDBRANCH  11  13
ENDBRANCH   2   8
BRANCH   1  24
ATOM     24  C   UNL     1      -3.714   2.966  -0.591  0.00  0.00    +0.000 C 
BRANCH  24  27
ATOM     25  N   UNL     1      -4.034   1.072  -2.337  0.00  0.00    +0.000 N 
ATOM     26  N   UNL     1      -5.095   0.873  -0.411  0.00  0.00    +0.000 NA
ATOM     27  C   UNL     1      -4.308   1.665  -1.112  0.00  0.00    +0.000 A 
ATOM     28  C   UNL     1      -4.707  -0.139  -2.387  0.00  0.00    +0.000 A 
ATOM     29  C   UNL     1      -5.343  -0.226  -1.159  0.00  0.00    +0.000 A 
ATOM     30  C   UNL     1      -4.799  -1.174  -3.329  0.00  0.00    +0.000 A 
ATOM     31  C   UNL     1      -6.085  -1.360  -0.808  0.00  0.00    +0.000 A 
ATOM     32  C   UNL     1      -5.560  -2.309  -2.977  0.00  0.00    +0.000 A 
ATOM     33  C   UNL     1      -6.173  -2.410  -1.721  0.00  0.00    +0.000 A 
BRANCH  32  35
ATOM     34  O   UNL     1      -6.690  -3.918  -4.308  0.00  0.00    +0.000 OA
ATOM     35  C   UNL     1      -5.635  -3.420  -3.960  0.00  0.00    +0.000 C 
BRANCH  35  36
ATOM     36  O   UNL     1      -4.434  -3.857  -4.395  0.00  0.00    +0.000 OA
ATOM     37  H   UNL     1      -4.423  -4.224  -5.297  0.00  0.00    +0.000 HD
ENDBRANCH  35  36
ENDBRANCH  32  35
BRANCH  25  38
ATOM     38  C   UNL     1      -3.059   1.523  -3.322  0.00  0.00    +0.000 C 
BRANCH  38  40
ATOM     39  O   UNL     1      -1.438   0.261  -4.637  0.00  0.00    +0.000 OA
ATOM     40  C   UNL     1      -1.741   0.759  -3.291  0.00  0.00    +0.000 C 
ATOM     41  C   UNL     1      -0.402   1.524  -3.286  0.00  0.00    +0.000 C 
ATOM     42  C   UNL     1      -0.430   1.296  -4.795  0.00  0.00    +0.000 C 
ENDBRANCH  38  40
ENDBRANCH  25  38
ENDBRANCH  24  27
ENDBRANCH   1  24
TORSDOF 11
ENDMDL
MODEL 16
REMARK VINA RESULT:     0.003      3.329      7.461
REMARK INTER + INTRA:          -3.488
REMARK INTER:                   0.000
REMARK INTRA:                  -3.488
REMARK UNBOUND:                -3.493
REMARK  Name = 134611040
REMARK  11 active torsions:
REMARK  status: ('A' for Active; 'I' for Inactive)
REMARK    1  A    between atoms: O_3  and  C_30
REMARK    2  A    between atoms: O_3  and  C_34
REMARK    3  A    between atoms: O_4  and  C_33
REMARK    4  A    between atoms: N_6  and  C_16
REMARK    5  A    between atoms: N_7  and  C_18
REMARK    6  A    between atoms: C_11  and  C_21
REMARK    7  A    between atoms: C_16  and  C_19
REMARK    8  A    between atoms: C_17  and  C_18
REMARK    9  A    between atoms: C_28  and  C_33
REMARK   10  A    between atoms: C_34  and  C_35
REMARK   11  A    between atoms: C_40  and  C_41
REMARK                            x       y       z     vdW  Elec       q    Type
REMARK                         _______ _______ _______ _____ _____    ______ ____
ROOT
ATOM      1  N   UNL     1       0.894   2.080  -0.354  0.00  0.00    +0.000 NA
ATOM      2  C   UNL     1       2.682  -0.260  -0.462  0.00  0.00    +0.000 C 
ATOM      3  C   UNL     1       2.484   0.716  -1.625  0.00  0.00    +0.000 C 
ATOM      4  C   UNL     1       1.493  -0.178   0.505  0.00  0.00    +0.000 C 
ATOM      5  C   UNL     1       2.136   2.115  -1.149  0.00  0.00    +0.000 C 
ATOM      6  C   UNL     1       1.141   1.280   0.860  0.00  0.00    +0.000 C 
ENDROOT
BRANCH   2   8
ATOM      7  N   UNL     1       1.895  -2.455  -1.233  0.00  0.00    +0.000 NA
ATOM      8  C   UNL     1       2.969  -1.675  -0.945  0.00  0.00    +0.000 A 
ATOM      9  C   UNL     1       4.271  -2.176  -1.016  0.00  0.00    +0.000 A 
ATOM     10  C   UNL     1       4.473  -3.523  -1.278  0.00  0.00    +0.000 A 
ATOM     11  C   UNL     1       2.114  -3.754  -1.542  0.00  0.00    +0.000 A 
ATOM     12  C   UNL     1       3.377  -4.332  -1.520  0.00  0.00    +0.000 A 
BRANCH  11  13
ATOM     13  O   UNL     1       0.977  -4.441  -1.882  0.00  0.00    +0.000 OA
BRANCH  13  14
ATOM     14  C   UNL     1       0.301  -5.031  -0.771  0.00  0.00    +0.000 C 
BRANCH  14  16
ATOM     15  F   UNL     1       0.426  -3.481   1.523  0.00  0.00    +0.000 F 
ATOM     16  C   UNL     1      -0.878  -4.214  -0.310  0.00  0.00    +0.000 A 
ATOM     17  C   UNL     1      -0.733  -3.446   0.851  0.00  0.00    +0.000 A 
ATOM     18  C   UNL     1      -2.097  -4.162  -0.995  0.00  0.00    +0.000 A 
ATOM     19  C   UNL     1      -1.758  -2.636   1.327  0.00  0.00    +0.000 A 
ATOM     20  C   UNL     1      -3.134  -3.350  -0.526  0.00  0.00    +0.000 A 
ATOM     21  C   UNL     1      -2.970  -2.578   0.631  0.00  0.00    +0.000 A 
BRANCH  21  23
ATOM     22  N   UNL     1      -4.877  -1.023   1.467  0.00  0.00    +0.000 NA
ATOM     23  C   UNL     1      -4.023  -1.720   1.088  0.00  0.00    +0.000 C 
ENDBRANCH  21  23
ENDBRANCH  14  16
ENDBRANCH  13  14
ENDBRANCH  11  13
ENDBRANCH   2   8
BRANCH   1  24
ATOM     24  C   UNL     1       0.403   3.441  -0.019  0.00  0.00    +0.000 C 
BRANCH  24  27
ATOM     25  N   UNL     1      -2.143   2.935  -0.028  0.00  0.00    +0.000 N 
ATOM     26  N   UNL     1      -1.304   3.909   1.768  0.00  0.00    +0.000 NA
ATOM     27  C   UNL     1      -1.004   3.464   0.563  0.00  0.00    +0.000 A 
ATOM     28  C   UNL     1      -3.196   3.083   0.862  0.00  0.00    +0.000 A 
ATOM     29  C   UNL     1      -2.621   3.682   1.972  0.00  0.00    +0.000 A 
ATOM     30  C   UNL     1      -4.553   2.731   0.846  0.00  0.00    +0.000 A 
ATOM     31  C   UNL     1      -3.373   3.939   3.125  0.00  0.00    +0.000 A 
ATOM     32  C   UNL     1      -5.310   3.005   2.005  0.00  0.00    +0.000 A 
ATOM     33  C   UNL     1      -4.720   3.578   3.139  0.00  0.00    +0.000 A 
BRANCH  32  35
ATOM     34  O   UNL     1      -7.649   3.415   2.057  0.00  0.00    +0.000 OA
ATOM     35  C   UNL     1      -6.742   2.605   2.004  0.00  0.00    +0.000 C 
BRANCH  35  36
ATOM     36  O   UNL     1      -6.944   1.271   1.985  0.00  0.00    +0.000 OA
ATOM     37  H   UNL     1      -7.840   0.979   2.233  0.00  0.00    +0.000 HD
ENDBRANCH  35  36
ENDBRANCH  32  35
BRANCH  25  38
ATOM     38  C   UNL     1      -2.205   2.175  -1.269  0.00  0.00    +0.000 C 
BRANCH  38  40
ATOM     39  O   UNL     1      -3.457   0.148  -1.793  0.00  0.00    +0.000 OA
ATOM     40  C   UNL     1      -2.288   0.665  -1.074  0.00  0.00    +0.000 C 
ATOM     41  C   UNL     1      -1.382  -0.273  -1.897  0.00  0.00    +0.000 C 
ATOM     42  C   UNL     1      -2.586  -0.387  -2.827  0.00  0.00    +0.000 C 
ENDBRANCH  38  40
ENDBRANCH  25  38
ENDBRANCH  24  27
ENDBRANCH   1  24
TORSDOF 11
ENDMDL
MODEL 17
REMARK VINA RESULT:     0.003      3.315      7.969
REMARK INTER + INTRA:          -3.488
REMARK INTER:                   0.000
REMARK INTRA:                  -3.488
REMARK UNBOUND:                -3.493
REMARK  Name = 134611040
REMARK  11 active torsions:
REMARK  status: ('A' for Active; 'I' for Inactive)
REMARK    1  A    between atoms: O_3  and  C_30
REMARK    2  A    between atoms: O_3  and  C_34
REMARK    3  A    between atoms: O_4  and  C_33
REMARK    4  A    between atoms: N_6  and  C_16
REMARK    5  A    between atoms: N_7  and  C_18
REMARK    6  A    between atoms: C_11  and  C_21
REMARK    7  A    between atoms: C_16  and  C_19
REMARK    8  A    between atoms: C_17  and  C_18
REMARK    9  A    between atoms: C_28  and  C_33
REMARK   10  A    between atoms: C_34  and  C_35
REMARK   11  A    between atoms: C_40  and  C_41
REMARK                            x       y       z     vdW  Elec       q    Type
REMARK                         _______ _______ _______ _____ _____    ______ ____
ROOT
ATOM      1  N   UNL     1      -2.795   2.143   0.106  0.00  0.00    +0.000 NA
ATOM      2  C   UNL     1      -5.053   2.165  -1.787  0.00  0.00    +0.000 C 
ATOM      3  C   UNL     1      -5.214   2.042  -0.270  0.00  0.00    +0.000 C 
ATOM      4  C   UNL     1      -3.635   1.750  -2.204  0.00  0.00    +0.000 C 
ATOM      5  C   UNL     1      -4.092   2.733   0.485  0.00  0.00    +0.000 C 
ATOM      6  C   UNL     1      -2.559   2.417  -1.325  0.00  0.00    +0.000 C 
ENDROOT
BRANCH   2   8
ATOM      7  N   UNL     1      -5.957   0.088  -2.735  0.00  0.00    +0.000 NA
ATOM      8  C   UNL     1      -6.145   1.419  -2.542  0.00  0.00    +0.000 A 
ATOM      9  C   UNL     1      -7.251   2.082  -3.077  0.00  0.00    +0.000 A 
ATOM     10  C   UNL     1      -8.120   1.398  -3.914  0.00  0.00    +0.000 A 
ATOM     11  C   UNL     1      -6.846  -0.576  -3.509  0.00  0.00    +0.000 A 
ATOM     12  C   UNL     1      -7.902   0.053  -4.156  0.00  0.00    +0.000 A 
BRANCH  11  13
ATOM     13  O   UNL     1      -6.610  -1.925  -3.590  0.00  0.00    +0.000 OA
BRANCH  13  14
ATOM     14  C   UNL     1      -5.750  -2.300  -4.666  0.00  0.00    +0.000 C 
BRANCH  14  16
ATOM     15  F   UNL     1      -3.750  -0.430  -5.092  0.00  0.00    +0.000 F 
ATOM     16  C   UNL     1      -4.334  -2.550  -4.217  0.00  0.00    +0.000 A 
ATOM     17  C   UNL     1      -3.383  -1.551  -4.455  0.00  0.00    +0.000 A 
ATOM     18  C   UNL     1      -3.928  -3.711  -3.551  0.00  0.00    +0.000 A 
ATOM     19  C   UNL     1      -2.061  -1.683  -4.041  0.00  0.00    +0.000 A 
ATOM     20  C   UNL     1      -2.602  -3.854  -3.129  0.00  0.00    +0.000 A 
ATOM     21  C   UNL     1      -1.663  -2.841  -3.365  0.00  0.00    +0.000 A 
BRANCH  21  23
ATOM     22  N   UNL     1       0.780  -3.094  -2.519  0.00  0.00    +0.000 NA
ATOM     23  C   UNL     1      -0.315  -2.977  -2.900  0.00  0.00    +0.000 C 
ENDBRANCH  21  23
ENDBRANCH  14  16
ENDBRANCH  13  14
ENDBRANCH  11  13
ENDBRANCH   2   8
BRANCH   1  24
ATOM     24  C   UNL     1      -1.680   2.649   0.947  0.00  0.00    +0.000 C 
BRANCH  24  27
ATOM     25  N   UNL     1      -0.185   0.527   0.931  0.00  0.00    +0.000 N 
ATOM     26  N   UNL     1       0.742   2.432   0.308  0.00  0.00    +0.000 NA
ATOM     27  C   UNL     1      -0.373   1.892   0.760  0.00  0.00    +0.000 A 
ATOM     28  C   UNL     1       1.122   0.227   0.578  0.00  0.00    +0.000 A 
ATOM     29  C   UNL     1       1.656   1.443   0.183  0.00  0.00    +0.000 A 
ATOM     30  C   UNL     1       1.877  -0.954   0.517  0.00  0.00    +0.000 A 
ATOM     31  C   UNL     1       2.963   1.533  -0.309  0.00  0.00    +0.000 A 
ATOM     32  C   UNL     1       3.199  -0.857   0.034  0.00  0.00    +0.000 A 
ATOM     33  C   UNL     1       3.725   0.367  -0.398  0.00  0.00    +0.000 A 
BRANCH  32  35
ATOM     34  O   UNL     1       5.096  -2.227   0.438  0.00  0.00    +0.000 OA
ATOM     35  C   UNL     1       3.992  -2.110  -0.061  0.00  0.00    +0.000 C 
BRANCH  35  36
ATOM     36  O   UNL     1       3.402  -3.085  -0.784  0.00  0.00    +0.000 OA
ATOM     37  H   UNL     1       2.697  -2.791  -1.388  0.00  0.00    +0.000 HD
ENDBRANCH  35  36
ENDBRANCH  32  35
BRANCH  25  38
ATOM     38  C   UNL     1      -1.214  -0.461   1.229  0.00  0.00    +0.000 C 
BRANCH  38  40
ATOM     39  O   UNL     1      -1.613  -2.683   0.306  0.00  0.00    +0.000 OA
ATOM     40  C   UNL     1      -1.694  -1.248   0.016  0.00  0.00    +0.000 C 
ATOM     41  C   UNL     1      -3.203  -1.402  -0.261  0.00  0.00    +0.000 C 
ATOM     42  C   UNL     1      -3.057  -2.733   0.470  0.00  0.00    +0.000 C 
ENDBRANCH  38  40
ENDBRANCH  25  38
ENDBRANCH  24  27
ENDBRANCH   1  24
TORSDOF 11
ENDMDL
MODEL 18
REMARK VINA RESULT:     0.003      3.804      8.327
REMARK INTER + INTRA:          -3.487
REMARK INTER:                   0.000
REMARK INTRA:                  -3.487
REMARK UNBOUND:                -3.493
REMARK  Name = 134611040
REMARK  11 active torsions:
REMARK  status: ('A' for Active; 'I' for Inactive)
REMARK    1  A    between atoms: O_3  and  C_30
REMARK    2  A    between atoms: O_3  and  C_34
REMARK    3  A    between atoms: O_4  and  C_33
REMARK    4  A    between atoms: N_6  and  C_16
REMARK    5  A    between atoms: N_7  and  C_18
REMARK    6  A    between atoms: C_11  and  C_21
REMARK    7  A    between atoms: C_16  and  C_19
REMARK    8  A    between atoms: C_17  and  C_18
REMARK    9  A    between atoms: C_28  and  C_33
REMARK   10  A    between atoms: C_34  and  C_35
REMARK   11  A    between atoms: C_40  and  C_41
REMARK                            x       y       z     vdW  Elec       q    Type
REMARK                         _______ _______ _______ _____ _____    ______ ____
ROOT
ATOM      1  N   UNL     1      -0.411  -1.184  -0.615  0.00  0.00    +0.000 NA
ATOM      2  C   UNL     1      -3.154  -2.215  -0.305  0.00  0.00    +0.000 C 
ATOM      3  C   UNL     1      -2.609  -1.621  -1.606  0.00  0.00    +0.000 C 
ATOM      4  C   UNL     1      -2.317  -1.732   0.889  0.00  0.00    +0.000 C 
ATOM      5  C   UNL     1      -1.110  -1.821  -1.747  0.00  0.00    +0.000 C 
ATOM      6  C   UNL     1      -0.806  -1.877   0.626  0.00  0.00    +0.000 C 
ENDROOT
BRANCH   2   8
ATOM      7  N   UNL     1      -5.006  -0.761   0.393  0.00  0.00    +0.000 NA
ATOM      8  C   UNL     1      -4.645  -1.958  -0.138  0.00  0.00    +0.000 A 
ATOM      9  C   UNL     1      -5.597  -2.934  -0.443  0.00  0.00    +0.000 A 
ATOM     10  C   UNL     1      -6.924  -2.727  -0.100  0.00  0.00    +0.000 A 
ATOM     11  C   UNL     1      -6.314  -0.554   0.670  0.00  0.00    +0.000 A 
ATOM     12  C   UNL     1      -7.287  -1.529   0.490  0.00  0.00    +0.000 A 
BRANCH  11  13
ATOM     13  O   UNL     1      -6.587   0.705   1.139  0.00  0.00    +0.000 OA
BRANCH  13  14
ATOM     14  C   UNL     1      -6.480   0.832   2.557  0.00  0.00    +0.000 C 
BRANCH  14  16
ATOM     15  F   UNL     1      -4.440  -0.700   3.641  0.00  0.00    +0.000 F 
ATOM     16  C   UNL     1      -5.175   1.452   2.986  0.00  0.00    +0.000 A 
ATOM     17  C   UNL     1      -4.188   0.611   3.512  0.00  0.00    +0.000 A 
ATOM     18  C   UNL     1      -4.890   2.816   2.861  0.00  0.00    +0.000 A 
ATOM     19  C   UNL     1      -2.942   1.093   3.899  0.00  0.00    +0.000 A 
ATOM     20  C   UNL     1      -3.640   3.312   3.245  0.00  0.00    +0.000 A 
ATOM     21  C   UNL     1      -2.658   2.456   3.759  0.00  0.00    +0.000 A 
BRANCH  21  23
ATOM     22  N   UNL     1      -0.315   3.375   4.404  0.00  0.00    +0.000 NA
ATOM     23  C   UNL     1      -1.367   2.963   4.119  0.00  0.00    +0.000 C 
ENDBRANCH  21  23
ENDBRANCH  14  16
ENDBRANCH  13  14
ENDBRANCH  11  13
ENDBRANCH   2   8
BRANCH   1  24
ATOM     24  C   UNL     1       1.064  -1.185  -0.794  0.00  0.00    +0.000 C 
BRANCH  24  27
ATOM     25  N   UNL     1       1.602   1.056   0.401  0.00  0.00    +0.000 N 
ATOM     26  N   UNL     1       2.683  -0.746   1.080  0.00  0.00    +0.000 NA
ATOM     27  C   UNL     1       1.806  -0.302   0.200  0.00  0.00    +0.000 A 
ATOM     28  C   UNL     1       2.413   1.462   1.450  0.00  0.00    +0.000 A 
ATOM     29  C   UNL     1       3.057   0.301   1.849  0.00  0.00    +0.000 A 
ATOM     30  C   UNL     1       2.625   2.678   2.115  0.00  0.00    +0.000 A 
ATOM     31  C   UNL     1       3.929   0.299   2.945  0.00  0.00    +0.000 A 
ATOM     32  C   UNL     1       3.515   2.674   3.210  0.00  0.00    +0.000 A 
ATOM     33  C   UNL     1       4.138   1.494   3.635  0.00  0.00    +0.000 A 
BRANCH  32  35
ATOM     34  O   UNL     1       4.824   4.385   4.210  0.00  0.00    +0.000 OA
ATOM     35  C   UNL     1       3.719   3.954   3.937  0.00  0.00    +0.000 C 
BRANCH  35  36
ATOM     36  O   UNL     1       2.576   4.570   4.306  0.00  0.00    +0.000 OA
ATOM     37  H   UNL     1       2.263   5.269   3.705  0.00  0.00    +0.000 HD
ENDBRANCH  35  36
ENDBRANCH  32  35
BRANCH  25  38
ATOM     38  C   UNL     1       0.579   1.883  -0.226  0.00  0.00    +0.000 C 
BRANCH  38  40
ATOM     39  O   UNL     1      -0.896   3.582   0.716  0.00  0.00    +0.000 OA
ATOM     40  C   UNL     1      -0.641   2.140   0.650  0.00  0.00    +0.000 C 
ATOM     41  C   UNL     1      -2.060   1.926   0.085  0.00  0.00    +0.000 C 
ATOM     42  C   UNL     1      -2.020   3.426  -0.194  0.00  0.00    +0.000 C 
ENDBRANCH  38  40
ENDBRANCH  25  38
ENDBRANCH  24  27
ENDBRANCH   1  24
TORSDOF 11
ENDMDL
MODEL 19
REMARK VINA RESULT:     0.003      4.353      8.313
REMARK INTER + INTRA:          -3.487
REMARK INTER:                   0.000
REMARK INTRA:                  -3.487
REMARK UNBOUND:                -3.493
REMARK  Name = 134611040
REMARK  11 active torsions:
REMARK  status: ('A' for Active; 'I' for Inactive)
REMARK    1  A    between atoms: O_3  and  C_30
REMARK    2  A    between atoms: O_3  and  C_34
REMARK    3  A    between atoms: O_4  and  C_33
REMARK    4  A    between atoms: N_6  and  C_16
REMARK    5  A    between atoms: N_7  and  C_18
REMARK    6  A    between atoms: C_11  and  C_21
REMARK    7  A    between atoms: C_16  and  C_19
REMARK    8  A    between atoms: C_17  and  C_18
REMARK    9  A    between atoms: C_28  and  C_33
REMARK   10  A    between atoms: C_34  and  C_35
REMARK   11  A    between atoms: C_40  and  C_41
REMARK                            x       y       z     vdW  Elec       q    Type
REMARK                         _______ _______ _______ _____ _____    ______ ____
ROOT
ATOM      1  N   UNL     1      -1.816  -1.926  -3.676  0.00  0.00    +0.000 NA
ATOM      2  C   UNL     1      -4.646  -2.456  -4.304  0.00  0.00    +0.000 C 
ATOM      3  C   UNL     1      -3.903  -1.185  -4.724  0.00  0.00    +0.000 C 
ATOM      4  C   UNL     1      -3.927  -3.123  -3.123  0.00  0.00    +0.000 C 
ATOM      5  C   UNL     1      -2.418  -1.427  -4.927  0.00  0.00    +0.000 C 
ATOM      6  C   UNL     1      -2.410  -3.240  -3.365  0.00  0.00    +0.000 C 
ENDROOT
BRANCH   2   8
ATOM      7  N   UNL     1      -6.458  -1.758  -2.800  0.00  0.00    +0.000 NA
ATOM      8  C   UNL     1      -6.123  -2.197  -4.042  0.00  0.00    +0.000 A 
ATOM      9  C   UNL     1      -7.098  -2.469  -5.004  0.00  0.00    +0.000 A 
ATOM     10  C   UNL     1      -8.439  -2.397  -4.658  0.00  0.00    +0.000 A 
ATOM     11  C   UNL     1      -7.771  -1.639  -2.498  0.00  0.00    +0.000 A 
ATOM     12  C   UNL     1      -8.783  -2.000  -3.378  0.00  0.00    +0.000 A 
BRANCH  11  13
ATOM     13  O   UNL     1      -8.007  -1.125  -1.249  0.00  0.00    +0.000 OA
BRANCH  13  14
ATOM     14  C   UNL     1      -8.064  -2.112  -0.218  0.00  0.00    +0.000 C 
BRANCH  14  16
ATOM     15  F   UNL     1      -6.295  -4.210  -0.604  0.00  0.00    +0.000 F 
ATOM     16  C   UNL     1      -6.779  -2.209   0.564  0.00  0.00    +0.000 A 
ATOM     17  C   UNL     1      -5.931  -3.291   0.302  0.00  0.00    +0.000 A 
ATOM     18  C   UNL     1      -6.379  -1.263   1.513  0.00  0.00    +0.000 A 
ATOM     19  C   UNL     1      -4.709  -3.439   0.950  0.00  0.00    +0.000 A 
ATOM     20  C   UNL     1      -5.152  -1.401   2.170  0.00  0.00    +0.000 A 
ATOM     21  C   UNL     1      -4.308  -2.483   1.890  0.00  0.00    +0.000 A 
BRANCH  21  23
ATOM     22  N   UNL     1      -2.006  -2.698   3.074  0.00  0.00    +0.000 NA
ATOM     23  C   UNL     1      -3.037  -2.601   2.539  0.00  0.00    +0.000 C 
ENDBRANCH  21  23
ENDBRANCH  14  16
ENDBRANCH  13  14
ENDBRANCH  11  13
ENDBRANCH   2   8
BRANCH   1  24
ATOM     24  C   UNL     1      -0.334  -2.004  -3.757  0.00  0.00    +0.000 C 
BRANCH  24  27
ATOM     25  N   UNL     1       0.216  -1.498  -1.272  0.00  0.00    +0.000 N 
ATOM     26  N   UNL     1       1.073  -3.332  -2.152  0.00  0.00    +0.000 NA
ATOM     27  C   UNL     1       0.344  -2.266  -2.420  0.00  0.00    +0.000 A 
ATOM     28  C   UNL     1       0.921  -2.124  -0.255  0.00  0.00    +0.000 A 
ATOM     29  C   UNL     1       1.426  -3.270  -0.848  0.00  0.00    +0.000 A 
ATOM     30  C   UNL     1       1.138  -1.852   1.103  0.00  0.00    +0.000 A 
ATOM     31  C   UNL     1       2.156  -4.206  -0.106  0.00  0.00    +0.000 A 
ATOM     32  C   UNL     1       1.886  -2.791   1.844  0.00  0.00    +0.000 A 
ATOM     33  C   UNL     1       2.366  -3.966   1.252  0.00  0.00    +0.000 A 
BRANCH  32  35
ATOM     34  O   UNL     1       3.188  -2.577   3.819  0.00  0.00    +0.000 OA
ATOM     35  C   UNL     1       2.092  -2.521   3.291  0.00  0.00    +0.000 C 
BRANCH  35  36
ATOM     36  O   UNL     1       0.958  -2.255   3.972  0.00  0.00    +0.000 OA
ATOM     37  H   UNL     1       1.055  -1.649   4.728  0.00  0.00    +0.000 HD
ENDBRANCH  35  36
ENDBRANCH  32  35
BRANCH  25  38
ATOM     38  C   UNL     1      -0.661  -0.349  -1.089  0.00  0.00    +0.000 C 
BRANCH  38  40
ATOM     39  O   UNL     1      -2.111   0.257   0.777  0.00  0.00    +0.000 OA
ATOM     40  C   UNL     1      -1.959  -0.663  -0.354  0.00  0.00    +0.000 C 
ATOM     41  C   UNL     1      -3.308  -0.173  -0.919  0.00  0.00    +0.000 C 
ATOM     42  C   UNL     1      -3.120   1.000   0.040  0.00  0.00    +0.000 C 
ENDBRANCH  38  40
ENDBRANCH  25  38
ENDBRANCH  24  27
ENDBRANCH   1  24
TORSDOF 11
ENDMDL
MODEL 20
REMARK VINA RESULT:     0.004      3.679      6.840
REMARK INTER + INTRA:          -3.486
REMARK INTER:                   0.000
REMARK INTRA:                  -3.486
REMARK UNBOUND:                -3.493
REMARK  Name = 134611040
REMARK  11 active torsions:
REMARK  status: ('A' for Active; 'I' for Inactive)
REMARK    1  A    between atoms: O_3  and  C_30
REMARK    2  A    between atoms: O_3  and  C_34
REMARK    3  A    between atoms: O_4  and  C_33
REMARK    4  A    between atoms: N_6  and  C_16
REMARK    5  A    between atoms: N_7  and  C_18
REMARK    6  A    between atoms: C_11  and  C_21
REMARK    7  A    between atoms: C_16  and  C_19
REMARK    8  A    between atoms: C_17  and  C_18
REMARK    9  A    between atoms: C_28  and  C_33
REMARK   10  A    between atoms: C_34  and  C_35
REMARK   11  A    between atoms: C_40  and  C_41
REMARK                            x       y       z     vdW  Elec       q    Type
REMARK                         _______ _______ _______ _____ _____    ______ ____
ROOT
ATOM      1  N   UNL     1      -0.457  -1.534   2.059  0.00  0.00    +0.000 NA
ATOM      2  C   UNL     1       1.726  -3.254   1.080  0.00  0.00    +0.000 C 
ATOM      3  C   UNL     1       1.948  -1.940   1.834  0.00  0.00    +0.000 C 
ATOM      4  C   UNL     1       0.321  -3.278   0.462  0.00  0.00    +0.000 C 
ATOM      5  C   UNL     1       0.816  -1.631   2.797  0.00  0.00    +0.000 C 
ATOM      6  C   UNL     1      -0.760  -2.855   1.476  0.00  0.00    +0.000 C 
ENDROOT
BRANCH   2   8
ATOM      7  N   UNL     1       2.702  -2.957  -1.154  0.00  0.00    +0.000 NA
ATOM      8  C   UNL     1       2.832  -3.530   0.071  0.00  0.00    +0.000 A 
ATOM      9  C   UNL     1       3.892  -4.392   0.362  0.00  0.00    +0.000 A 
ATOM     10  C   UNL     1       4.770  -4.761  -0.646  0.00  0.00    +0.000 A 
ATOM     11  C   UNL     1       3.602  -3.285  -2.109  0.00  0.00    +0.000 A 
ATOM     12  C   UNL     1       4.610  -4.220  -1.909  0.00  0.00    +0.000 A 
BRANCH  11  13
ATOM     13  O   UNL     1       3.428  -2.606  -3.288  0.00  0.00    +0.000 OA
BRANCH  13  14
ATOM     14  C   UNL     1       2.534  -3.246  -4.200  0.00  0.00    +0.000 C 
BRANCH  14  16
ATOM     15  F   UNL     1       0.421  -4.516  -2.936  0.00  0.00    +0.000 F 
ATOM     16  C   UNL     1       1.154  -2.641  -4.180  0.00  0.00    +0.000 A 
ATOM     17  C   UNL     1       0.142  -3.336  -3.509  0.00  0.00    +0.000 A 
ATOM     18  C   UNL     1       0.840  -1.412  -4.770  0.00  0.00    +0.000 A 
ATOM     19  C   UNL     1      -1.152  -2.834  -3.410  0.00  0.00    +0.000 A 
ATOM     20  C   UNL     1      -0.456  -0.897  -4.676  0.00  0.00    +0.000 A 
ATOM     21  C   UNL     1      -1.457  -1.598  -3.991  0.00  0.00    +0.000 A 
BRANCH  21  23
ATOM     22  N   UNL     1      -3.844  -0.599  -3.761  0.00  0.00    +0.000 NA
ATOM     23  C   UNL     1      -2.775  -1.050  -3.867  0.00  0.00    +0.000 C 
ENDBRANCH  21  23
ENDBRANCH  14  16
ENDBRANCH  13  14
ENDBRANCH  11  13
ENDBRANCH   2   8
BRANCH   1  24
ATOM     24  C   UNL     1      -1.570  -1.050   2.917  0.00  0.00    +0.000 C 
BRANCH  24  27
ATOM     25  N   UNL     1      -2.897   0.255   1.108  0.00  0.00    +0.000 N 
ATOM     26  N   UNL     1      -4.000  -1.243   2.299  0.00  0.00    +0.000 NA
ATOM     27  C   UNL     1      -2.824  -0.666   2.144  0.00  0.00    +0.000 A 
ATOM     28  C   UNL     1      -4.194   0.247   0.618  0.00  0.00    +0.000 A 
ATOM     29  C   UNL     1      -4.840  -0.711   1.383  0.00  0.00    +0.000 A 
ATOM     30  C   UNL     1      -4.859   0.924  -0.415  0.00  0.00    +0.000 A 
ATOM     31  C   UNL     1      -6.176  -1.052   1.137  0.00  0.00    +0.000 A 
ATOM     32  C   UNL     1      -6.209   0.587  -0.650  0.00  0.00    +0.000 A 
ATOM     33  C   UNL     1      -6.850  -0.407   0.100  0.00  0.00    +0.000 A 
BRANCH  32  35
ATOM     34  O   UNL     1      -7.842   2.039  -1.580  0.00  0.00    +0.000 OA
ATOM     35  C   UNL     1      -6.908   1.280  -1.763  0.00  0.00    +0.000 C 
BRANCH  35  36
ATOM     36  O   UNL     1      -6.448   0.958  -2.991  0.00  0.00    +0.000 OA
ATOM     37  H   UNL     1      -5.508   1.154  -3.151  0.00  0.00    +0.000 HD
ENDBRANCH  35  36
ENDBRANCH  32  35
BRANCH  25  38
ATOM     38  C   UNL     1      -1.781   0.962   0.493  0.00  0.00    +0.000 C 
BRANCH  38  40
ATOM     39  O   UNL     1      -1.317   1.399  -1.861  0.00  0.00    +0.000 OA
ATOM     40  C   UNL     1      -1.310   0.361  -0.826  0.00  0.00    +0.000 C 
ATOM     41  C   UNL     1       0.194   0.134  -1.081  0.00  0.00    +0.000 C 
ATOM     42  C   UNL     1       0.132   1.485  -1.788  0.00  0.00    +0.000 C 
ENDBRANCH  38  40
ENDBRANCH  25  38
ENDBRANCH  24  27
ENDBRANCH   1  24
TORSDOF 11
ENDMDL
